HMRSUDUYEZVBSR-UHFFFAOYSA-N
     RDKit          3D

 42 48  0  0  0  0  0  0  0  0999 V2000
  -24.2870   16.8620   24.4210 C   0  0  0  0  0  0  0  0  0  0  0  0
  -23.8870   18.1060   23.7630 N   0  0  0  0  0  0  0  0  0  0  0  0
  -24.7770   18.3950   22.6160 C   0  0  0  0  0  0  0  0  0  0  0  0
  -24.3690   19.6820   21.8740 C   0  0  0  0  0  0  0  0  0  0  0  0
  -22.9580   19.6440   21.4780 N   0  0  0  0  0  0  0  0  0  0  0  0
  -22.5990   20.0070   20.1830 C   0  0  0  0  0  0  0  0  0  0  0  0
  -23.4340   20.4490   19.3920 O   0  0  0  0  0  0  0  0  0  0  0  0
  -21.1360   19.8620   19.8120 C   0  0  0  0  0  0  0  0  0  0  0  0
  -20.3740   21.0880   19.9860 N   0  0  0  0  0  0  0  0  0  0  0  0
  -19.1490   21.3780   19.4510 C   0  0  0  0  0  0  0  0  0  0  0  0
  -18.8680   22.6690   19.8230 C   0  0  0  0  0  0  0  0  0  0  0  0
  -17.7240   23.3210   19.5210 N   0  0  0  0  0  0  0  0  0  0  0  0
  -16.4750   23.0920   19.9720 C   0  0  0  0  0  0  0  0  0  0  0  0
  -16.0890   21.7860   20.0380 N   0  0  0  0  0  0  0  0  0  0  0  0
  -14.8610   21.8420   20.5200 C   0  0  0  0  0  0  0  0  0  0  0  0
  -13.8880   20.8100   20.8490 C   0  0  0  0  0  0  0  0  0  0  0  0
  -14.1550   19.4370   20.6240 N   0  0  0  0  0  0  0  0  0  0  0  0
  -14.8790   18.6260   21.6550 C   0  0  0  0  0  0  0  0  0  0  0  0
  -15.4740   17.3080   21.0860 C   0  0  1  0  0  0  0  0  0  0  0  0
  -16.4500   17.6170   19.9440 C   0  0  0  0  0  0  0  0  0  0  0  0
  -15.5690   17.6630   18.6840 C   0  0  0  0  0  0  0  0  0  0  0  0
  -14.1560   17.3460   19.1910 C   0  0  1  0  0  0  0  0  0  0  0  0
  -13.4090   18.6420   19.5980 C   0  0  0  0  0  0  0  0  0  0  0  0
  -14.4200   16.5790   20.3960 N   0  0  0  0  0  0  0  0  0  0  0  0
  -13.6130   15.5550   20.8160 C   0  0  0  0  0  0  0  0  0  0  0  0
  -13.1250   15.5470   21.9460 O   0  0  0  0  0  0  0  0  0  0  0  0
  -13.3570   14.4210   19.8330 C   0  0  2  0  0  0  0  0  0  0  0  0
  -14.5200   13.4110   19.8360 C   0  0  0  0  0  0  0  0  0  0  0  0
  -13.9040   12.0500   20.1450 C   0  0  0  0  0  0  0  0  0  0  0  0
  -12.4660   12.2130   19.7180 C   0  0  0  0  0  0  0  0  0  0  0  0
  -11.6650   11.2710   20.2410 F   0  0  0  0  0  0  0  0  0  0  0  0
  -12.3720   12.1360   18.3680 F   0  0  0  0  0  0  0  0  0  0  0  0
  -12.1030   13.6030   20.1770 C   0  0  0  0  0  0  0  0  0  0  0  0
  -12.7130   21.2470   21.3710 C   0  0  0  0  0  0  0  0  0  0  0  0
  -12.3960   22.6450   21.6020 C   0  0  0  0  0  0  0  0  0  0  0  0
  -13.3060   23.5730   21.2810 C   0  0  0  0  0  0  0  0  0  0  0  0
  -14.5260   23.1780   20.7470 N   0  0  0  0  0  0  0  0  0  0  0  0
  -15.5550   23.9690   20.3730 N   0  0  0  0  0  0  0  0  0  0  0  0
  -20.0050   23.0900   20.5430 C   0  0  0  0  0  0  0  0  0  0  0  0
  -20.9420   22.1370   20.6180 N   0  0  0  0  0  0  0  0  0  0  0  0
  -22.0410   19.3070   22.5730 C   0  0  0  0  0  0  0  0  0  0  0  0
  -22.4850   18.0250   23.3070 C   0  0  0  0  0  0  0  0  0  0  0  0
  1  2  1  0
  2  3  1  0
  3  4  1  0
  4  5  1  0
  5  6  1  0
  6  7  2  0
  6  8  1  0
  8  9  1  0
  9 10  1  0
 10 11  2  0
 11 12  1  0
 12 13  1  0
 13 14  1  0
 14 15  2  0
 15 16  1  0
 16 17  1  0
 17 18  1  0
 19 18  1  6
 19 20  1  0
 20 21  1  0
 22 21  1  1
 22 23  1  0
 22 24  1  0
 24 25  1  0
 25 26  2  0
 27 25  1  1
 27 28  1  0
 28 29  1  0
 29 30  1  0
 30 31  1  0
 30 32  1  0
 30 33  1  0
 16 34  2  0
 34 35  1  0
 35 36  2  0
 36 37  1  0
 37 38  1  0
 11 39  1  0
 39 40  2  0
  5 41  1  0
 41 42  1  0
 42  2  1  0
 40  9  1  0
 38 13  2  0
 37 15  1  0
 23 17  1  0
 33 27  1  0
 24 19  1  0
M  END
$$$$
