DWZAEMINVBZMHQ-UHFFFAOYSA-N
     RDKit          3D

 45 50  0  0  0  0  0  0  0  0999 V2000
   45.6520    3.3730  -57.3230 C   0  0  0  0  0  0  0  0  0  0  0  0
   44.3850    2.6400  -57.3580 N   0  0  0  0  0  0  0  0  0  0  0  0
   43.3590    3.3750  -56.6180 C   0  0  0  0  0  0  0  0  0  0  0  0
   44.5470    1.2260  -56.9590 C   0  0  0  0  0  0  0  0  0  0  0  0
   44.3960    0.9310  -55.4530 C   0  0  0  0  0  0  0  0  0  0  0  0
   44.6240   -0.5530  -55.1580 C   0  0  0  0  0  0  0  0  0  0  0  0
   43.7780   -1.4020  -55.9960 N   0  0  0  0  0  0  0  0  0  0  0  0
   42.8970   -2.3820  -55.5420 C   0  0  0  0  0  0  0  0  0  0  0  0
   42.0760   -2.9450  -56.2650 O   0  0  0  0  0  0  0  0  0  0  0  0
   42.9340   -2.7980  -54.1230 C   0  0  0  0  0  0  0  0  0  0  0  0
   43.6680   -3.9340  -53.7740 C   0  0  0  0  0  0  0  0  0  0  0  0
   43.7860   -4.3080  -52.4310 C   0  0  0  0  0  0  0  0  0  0  0  0
   43.1810   -3.5450  -51.4280 C   0  0  0  0  0  0  0  0  0  0  0  0
   43.2540   -3.8630  -50.0570 N   0  0  0  0  0  0  0  0  0  0  0  0
   44.4010   -4.1150  -49.3150 C   0  0  0  0  0  0  0  0  0  0  0  0
   45.5460   -3.9340  -49.7080 O   0  0  0  0  0  0  0  0  0  0  0  0
   44.0630   -4.6030  -48.0610 N   0  0  0  0  0  0  0  0  0  0  0  0
   44.9180   -4.7400  -46.9490 C   0  0  0  0  0  0  0  0  0  0  0  0
   45.7160   -5.8620  -46.7260 C   0  0  0  0  0  0  0  0  0  0  0  0
   46.5780   -5.9140  -45.6220 C   0  0  0  0  0  0  0  0  0  0  0  0
   46.6500   -4.8560  -44.7020 C   0  0  0  0  0  0  0  0  0  0  0  0
   47.5490   -4.9140  -43.5410 C   0  0  0  0  0  0  0  0  0  0  0  0
   48.1720   -3.7910  -43.1980 N   0  0  0  0  0  0  0  0  0  0  0  0
   48.9420   -3.8690  -42.1230 C   0  0  0  0  0  0  0  0  0  0  0  0
   49.5680   -2.7190  -41.6660 N   0  0  0  0  0  0  0  0  0  0  0  0
   48.7330   -1.5250  -41.5060 C   0  0  0  0  0  0  0  0  0  0  0  0
   49.5950   -0.2850  -41.2340 C   0  0  0  0  0  0  0  0  0  0  0  0
   50.5180   -0.4980  -40.1540 O   0  0  0  0  0  0  0  0  0  0  0  0
   51.4100   -1.5710  -40.4910 C   0  0  0  0  0  0  0  0  0  0  0  0
   50.6530   -2.8900  -40.6960 C   0  0  0  0  0  0  0  0  0  0  0  0
   49.1320   -5.0060  -41.4580 N   0  0  0  0  0  0  0  0  0  0  0  0
   48.4880   -6.0940  -41.8760 C   0  0  0  0  0  0  0  0  0  0  0  0
   48.6780   -7.2850  -41.1970 N   0  0  0  0  0  0  0  0  0  0  0  0
   50.0570   -7.7250  -40.9710 C   0  0  0  0  0  0  0  0  0  0  0  0
   50.1010   -8.8700  -39.9490 C   0  0  0  0  0  0  0  0  0  0  0  0
   49.2120   -9.9360  -40.3100 O   0  0  0  0  0  0  0  0  0  0  0  0
   47.8610   -9.4520  -40.3440 C   0  0  0  0  0  0  0  0  0  0  0  0
   47.6810   -8.3420  -41.3900 C   0  0  0  0  0  0  0  0  0  0  0  0
   47.6570   -6.0770  -42.9070 N   0  0  0  0  0  0  0  0  0  0  0  0
   45.8340   -3.7350  -44.9350 C   0  0  0  0  0  0  0  0  0  0  0  0
   44.9930   -3.6700  -46.0540 C   0  0  0  0  0  0  0  0  0  0  0  0
   42.4490   -2.4050  -51.7880 C   0  0  0  0  0  0  0  0  0  0  0  0
   42.3380   -2.0200  -53.1290 C   0  0  0  0  0  0  0  0  0  0  0  0
   43.8610   -1.1500  -57.4330 C   0  0  0  0  0  0  0  0  0  0  0  0
   43.5930    0.3160  -57.7570 C   0  0  0  0  0  0  0  0  0  0  0  0
  1  2  1  0
  2  3  1  0
  2  4  1  0
  4  5  1  0
  5  6  1  0
  6  7  1  0
  7  8  1  0
  8  9  2  0
  8 10  1  0
 10 11  2  0
 11 12  1  0
 12 13  2  0
 13 14  1  0
 14 15  1  0
 15 16  2  0
 15 17  1  0
 17 18  1  0
 18 19  2  0
 19 20  1  0
 20 21  2  0
 21 22  1  0
 22 23  2  0
 23 24  1  0
 24 25  1  0
 25 26  1  0
 26 27  1  0
 27 28  1  0
 28 29  1  0
 29 30  1  0
 24 31  2  0
 31 32  1  0
 32 33  1  0
 33 34  1  0
 34 35  1  0
 35 36  1  0
 36 37  1  0
 37 38  1  0
 32 39  2  0
 21 40  1  0
 40 41  2  0
 13 42  1  0
 42 43  2  0
  7 44  1  0
 44 45  1  0
 45  4  1  0
 43 10  1  0
 41 18  1  0
 39 22  1  0
 30 25  1  0
 38 33  1  0
M  END
$$$$
