PKRKWOVHSNTKAH-KDURUIRLSA-N
     RDKit          3D

 44 49  0  0  0  0  0  0  0  0999 V2000
   -6.0350   17.9610   17.3110 C   0  0  0  0  0  0  0  0  0  0  0  0
   -6.2080   18.5870   18.5760 O   0  0  0  0  0  0  0  0  0  0  0  0
   -5.8260   17.7190   19.6470 C   0  0  0  0  0  0  0  0  0  0  0  0
   -6.6800   18.0660   20.8610 C   0  0  0  0  0  0  0  0  0  0  0  0
   -7.6740   16.9640   21.2350 C   0  0  0  0  0  0  0  0  0  0  0  0
   -8.5760   16.5750   20.1460 N   0  0  0  0  0  0  0  0  0  0  0  0
   -9.6240   17.5840   19.9330 C   0  0  0  0  0  0  0  0  0  0  0  0
  -10.6470   16.8530   19.0660 C   0  0  2  0  0  0  0  0  0  0  0  0
  -12.0900   17.1310   19.4650 C   0  0  0  0  0  0  0  0  0  0  0  0
  -12.5170   15.9630   20.2160 N   0  0  0  0  0  0  0  0  0  0  0  0
  -13.6290   16.0200   21.0340 C   0  0  0  0  0  0  0  0  0  0  0  0
  -13.5360   16.4190   22.1980 O   0  0  0  0  0  0  0  0  0  0  0  0
  -14.9630   15.5570   20.4850 C   0  0  0  0  0  0  0  0  0  0  0  0
  -15.9650   16.5990   20.5930 N   0  0  0  0  0  0  0  0  0  0  0  0
  -17.2450   16.4500   21.0410 C   0  0  0  0  0  0  0  0  0  0  0  0
  -17.8410   17.6810   20.9270 C   0  0  0  0  0  0  0  0  0  0  0  0
  -19.1460   18.0310   21.2060 N   0  0  0  0  0  0  0  0  0  0  0  0
  -19.7190   18.1190   22.4550 C   0  0  0  0  0  0  0  0  0  0  0  0
  -19.1580   17.8740   23.5200 O   0  0  0  0  0  0  0  0  0  0  0  0
  -21.1060   18.5570   22.4280 C   0  0  0  0  0  0  0  0  0  0  0  0
  -22.0700   18.4270   23.4470 C   0  0  0  0  0  0  0  0  0  0  0  0
  -23.2580   18.9400   23.1210 N   0  0  0  0  0  0  0  0  0  0  0  0
  -23.0850   19.4120   21.8660 N   0  0  0  0  0  0  0  0  0  0  0  0
  -24.0220   20.0480   21.0560 C   0  0  0  0  0  0  0  0  0  0  0  0
  -23.6880   20.4540   19.8240 C   0  0  0  0  0  0  0  0  0  0  0  0
  -22.2790   20.1770   19.4260 C   0  0  0  0  0  0  0  0  0  0  0  0
  -21.3730   19.5930   20.1550 N   0  0  0  0  0  0  0  0  0  0  0  0
  -21.7810   19.1960   21.4050 C   0  0  0  0  0  0  0  0  0  0  0  0
  -16.8020   18.5420   20.4620 C   0  0  0  0  0  0  0  0  0  0  0  0
  -16.8860   19.9670   20.1840 C   0  0  0  0  0  0  0  0  0  0  0  0
  -18.0500   20.4870   19.6040 C   0  0  0  0  0  0  0  0  0  0  0  0
  -18.1220   21.8430   19.2890 C   0  0  0  0  0  0  0  0  0  0  0  0
  -19.5460   22.4750   18.5580 Cl  0  0  0  0  0  0  0  0  0  0  0  0
  -17.0440   22.6900   19.5450 C   0  0  0  0  0  0  0  0  0  0  0  0
  -15.8870   22.1820   20.1380 C   0  0  0  0  0  0  0  0  0  0  0  0
  -15.8200   20.8290   20.4760 C   0  0  0  0  0  0  0  0  0  0  0  0
  -14.6660   20.3590   21.0460 O   0  0  0  0  0  0  0  0  0  0  0  0
  -13.5440   20.7450   20.2510 C   0  0  0  0  0  0  0  0  0  0  0  0
  -12.4320   20.2840   20.8800 F   0  0  0  0  0  0  0  0  0  0  0  0
  -13.6200   20.0840   19.0650 F   0  0  0  0  0  0  0  0  0  0  0  0
  -15.6530   17.8760   20.2930 N   0  0  0  0  0  0  0  0  0  0  0  0
  -11.7400   14.8000   19.8240 C   0  0  0  0  0  0  0  0  0  0  0  0
  -10.4090   15.3620   19.3500 C   0  0  2  0  0  0  0  0  0  0  0  0
   -9.3220   15.3430   20.4210 C   0  0  0  0  0  0  0  0  0  0  0  0
  1  2  1  0
  2  3  1  0
  3  4  1  0
  4  5  1  0
  5  6  1  0
  6  7  1  0
  8  7  1  1
  8  9  1  0
  9 10  1  0
 10 11  1  0
 11 12  2  0
 11 13  1  0
 13 14  1  0
 14 15  1  0
 15 16  2  0
 16 17  1  0
 17 18  1  0
 18 19  2  0
 18 20  1  0
 20 21  1  0
 21 22  2  0
 22 23  1  0
 23 24  1  0
 24 25  2  0
 25 26  1  0
 26 27  2  0
 27 28  1  0
 16 29  1  0
 29 30  1  0
 30 31  2  0
 31 32  1  0
 32 33  1  0
 32 34  2  0
 34 35  1  0
 35 36  2  0
 36 37  1  0
 37 38  1  0
 38 39  1  0
 38 40  1  0
 29 41  2  0
 10 42  1  0
 43 42  1  1
 43 44  1  0
 44  6  1  0
 43  8  1  0
 41 14  1  0
 28 20  2  0
 36 30  1  0
 28 23  1  0
M  END
$$$$
