PKRKWOVHSNTKAH-KDURUIRLSA-N
     RDKit          3D

 44 49  0  0  0  0  0  0  0  0999 V2000
   -5.5910   14.7080   19.8180 C   0  0  0  0  0  0  0  0  0  0  0  0
   -6.7930   14.6980   19.0570 O   0  0  0  0  0  0  0  0  0  0  0  0
   -7.9450   14.8240   19.8960 C   0  0  0  0  0  0  0  0  0  0  0  0
   -8.6870   13.4930   19.8780 C   0  0  0  0  0  0  0  0  0  0  0  0
  -10.0230   13.5570   19.1340 C   0  0  0  0  0  0  0  0  0  0  0  0
  -11.1990   13.5510   20.0090 N   0  0  0  0  0  0  0  0  0  0  0  0
  -12.3440   12.8930   19.3630 C   0  0  0  0  0  0  0  0  0  0  0  0
  -13.5290   13.3120   20.2320 C   0  0  2  0  0  0  0  0  0  0  0  0
  -14.7730   13.6700   19.4310 C   0  0  0  0  0  0  0  0  0  0  0  0
  -14.8160   15.1220   19.4100 N   0  0  0  0  0  0  0  0  0  0  0  0
  -15.5890   15.7900   18.4800 C   0  0  0  0  0  0  0  0  0  0  0  0
  -16.4670   15.1970   17.8470 O   0  0  0  0  0  0  0  0  0  0  0  0
  -15.3210   17.2590   18.2290 C   0  0  0  0  0  0  0  0  0  0  0  0
  -16.3380   18.0900   18.8430 N   0  0  0  0  0  0  0  0  0  0  0  0
  -17.4420   17.6560   19.5170 C   0  0  0  0  0  0  0  0  0  0  0  0
  -18.1410   18.7800   19.8790 C   0  0  0  0  0  0  0  0  0  0  0  0
  -19.3520   18.8620   20.5370 N   0  0  0  0  0  0  0  0  0  0  0  0
  -19.5900   18.5410   21.8540 C   0  0  0  0  0  0  0  0  0  0  0  0
  -18.7590   18.1050   22.6470 O   0  0  0  0  0  0  0  0  0  0  0  0
  -20.9640   18.7750   22.2700 C   0  0  0  0  0  0  0  0  0  0  0  0
  -21.6330   18.2250   23.3800 C   0  0  0  0  0  0  0  0  0  0  0  0
  -22.8940   18.6440   23.5000 N   0  0  0  0  0  0  0  0  0  0  0  0
  -23.0690   19.4810   22.4510 N   0  0  0  0  0  0  0  0  0  0  0  0
  -24.2160   20.1910   22.1080 C   0  0  0  0  0  0  0  0  0  0  0  0
  -24.2250   20.9800   21.0260 C   0  0  0  0  0  0  0  0  0  0  0  0
  -22.9460   21.0250   20.2630 C   0  0  0  0  0  0  0  0  0  0  0  0
  -21.8520   20.3820   20.5550 N   0  0  0  0  0  0  0  0  0  0  0  0
  -21.9100   19.5870   21.6730 C   0  0  0  0  0  0  0  0  0  0  0  0
  -17.3290   19.8670   19.4390 C   0  0  0  0  0  0  0  0  0  0  0  0
  -17.5930   21.2900   19.5830 C   0  0  0  0  0  0  0  0  0  0  0  0
  -18.7720   21.8270   19.0520 C   0  0  0  0  0  0  0  0  0  0  0  0
  -19.0110   23.1980   19.1430 C   0  0  0  0  0  0  0  0  0  0  0  0
  -20.4520   23.8590   18.4730 Cl  0  0  0  0  0  0  0  0  0  0  0  0
  -18.0860   24.0420   19.7570 C   0  0  0  0  0  0  0  0  0  0  0  0
  -16.9160   23.5110   20.3020 C   0  0  0  0  0  0  0  0  0  0  0  0
  -16.6840   22.1360   20.2340 C   0  0  0  0  0  0  0  0  0  0  0  0
  -15.5200   21.6480   20.7680 O   0  0  0  0  0  0  0  0  0  0  0  0
  -14.4060   22.3690   20.2400 C   0  0  0  0  0  0  0  0  0  0  0  0
  -13.4330   22.3490   21.1860 F   0  0  0  0  0  0  0  0  0  0  0  0
  -13.9240   21.6800   19.1720 F   0  0  0  0  0  0  0  0  0  0  0  0
  -16.2140   19.4330   18.8350 N   0  0  0  0  0  0  0  0  0  0  0  0
  -14.1140   15.6630   20.5610 C   0  0  0  0  0  0  0  0  0  0  0  0
  -13.0760   14.6100   20.9150 C   0  0  2  0  0  0  0  0  0  0  0  0
  -11.6950   14.8930   20.3280 C   0  0  0  0  0  0  0  0  0  0  0  0
  1  2  1  0
  2  3  1  0
  3  4  1  0
  4  5  1  0
  5  6  1  0
  6  7  1  0
  8  7  1  6
  8  9  1  0
  9 10  1  0
 10 11  1  0
 11 12  2  0
 11 13  1  0
 13 14  1  0
 14 15  1  0
 15 16  2  0
 16 17  1  0
 17 18  1  0
 18 19  2  0
 18 20  1  0
 20 21  1  0
 21 22  2  0
 22 23  1  0
 23 24  1  0
 24 25  2  0
 25 26  1  0
 26 27  2  0
 27 28  1  0
 16 29  1  0
 29 30  1  0
 30 31  2  0
 31 32  1  0
 32 33  1  0
 32 34  2  0
 34 35  1  0
 35 36  2  0
 36 37  1  0
 37 38  1  0
 38 39  1  0
 38 40  1  0
 29 41  2  0
 10 42  1  0
 43 42  1  6
 43 44  1  0
 44  6  1  0
 43  8  1  0
 41 14  1  0
 28 20  2  0
 36 30  1  0
 28 23  1  0
M  END
$$$$
