ICDUDMAKDBBZOT-SNAWJCMRSA-N
     RDKit          3D

 36 39  0  0  0  0  0  0  0  0999 V2000
   22.6630   35.8870   11.7300 O   0  0  0  0  0  0  0  0  0  0  0  0
   23.0690   34.9510   12.4080 C   0  0  0  0  0  0  0  0  0  0  0  0
   24.5210   34.6370   12.4960 C   0  0  0  0  0  0  0  0  0  0  0  0
   24.9840   33.8910   13.5120 C   0  0  0  0  0  0  0  0  0  0  0  0
   26.4220   33.4990   13.6900 C   0  0  0  0  0  0  0  0  0  0  0  0
   27.0570   32.8750   12.5240 N   0  0  0  0  0  0  0  0  0  0  0  0
   26.4050   31.6290   12.1090 C   0  0  0  0  0  0  0  0  0  0  0  0
   26.9930   31.1080   10.7970 C   0  0  0  0  0  0  0  0  0  0  0  0
   28.5050   30.9400   10.8950 C   0  0  0  0  0  0  0  0  0  0  0  0
   29.1540   32.2250   11.3920 C   0  0  0  0  0  0  0  0  0  0  0  0
   28.5040   32.7090   12.6890 C   0  0  0  0  0  0  0  0  0  0  0  0
   22.3070   34.0540   13.1230 N   0  0  0  0  0  0  0  0  0  0  0  0
   20.9020   34.0510   13.2690 C   0  0  0  0  0  0  0  0  0  0  0  0
   20.0210   33.7660   12.2270 C   0  0  0  0  0  0  0  0  0  0  0  0
   18.6170   33.7470   12.4330 C   0  0  0  0  0  0  0  0  0  0  0  0
   17.6540   33.4430   11.4470 C   0  0  0  0  0  0  0  0  0  0  0  0
   18.0750   33.1110   10.1390 N   0  0  0  0  0  0  0  0  0  0  0  0
   17.4490   32.3660    9.1220 C   0  0  0  0  0  0  0  0  0  0  0  0
   16.0610   32.3500    8.9310 C   0  0  0  0  0  0  0  0  0  0  0  0
   15.4800   31.6080    7.8980 C   0  0  0  0  0  0  0  0  0  0  0  0
   16.2870   30.8810    7.0370 C   0  0  0  0  0  0  0  0  0  0  0  0
   15.7120   30.1710    6.0560 F   0  0  0  0  0  0  0  0  0  0  0  0
   17.6690   30.8940    7.1910 C   0  0  0  0  0  0  0  0  0  0  0  0
   18.6800   30.0050    6.1180 Cl  0  0  0  0  0  0  0  0  0  0  0  0
   18.2470   31.6380    8.2230 C   0  0  0  0  0  0  0  0  0  0  0  0
   16.3360   33.4810   11.7160 N   0  0  0  0  0  0  0  0  0  0  0  0
   15.9780   33.7980   12.9620 C   0  0  0  0  0  0  0  0  0  0  0  0
   16.8040   34.0860   13.9710 N   0  0  0  0  0  0  0  0  0  0  0  0
   18.1090   34.0610   13.7010 C   0  0  0  0  0  0  0  0  0  0  0  0
   18.9950   34.3640   14.7280 C   0  0  0  0  0  0  0  0  0  0  0  0
   20.3780   34.3410   14.5350 C   0  0  0  0  0  0  0  0  0  0  0  0
   21.2820   34.6440   15.5240 O   0  0  0  0  0  0  0  0  0  0  0  0
   21.3430   33.7090   16.6160 C   0  0  0  0  0  0  0  0  0  0  0  0
   22.6970   33.0150   16.6640 C   0  0  0  0  0  0  0  0  0  0  0  0
   23.6830   33.9370   16.5420 F   0  0  0  0  0  0  0  0  0  0  0  0
   22.8290   32.1730   15.6070 F   0  0  0  0  0  0  0  0  0  0  0  0
  1  2  2  0
  2  3  1  0
  3  4  2  0
  4  5  1  0
  5  6  1  0
  6  7  1  0
  7  8  1  0
  8  9  1  0
  9 10  1  0
 10 11  1  0
  2 12  1  0
 12 13  1  0
 13 14  2  0
 14 15  1  0
 15 16  2  0
 16 17  1  0
 17 18  1  0
 18 19  2  0
 19 20  1  0
 20 21  2  0
 21 22  1  0
 21 23  1  0
 23 24  1  0
 23 25  2  0
 16 26  1  0
 26 27  2  0
 27 28  1  0
 28 29  2  0
 29 30  1  0
 30 31  2  0
 31 32  1  0
 32 33  1  0
 33 34  1  0
 34 35  1  0
 34 36  1  0
 11  6  1  0
 31 13  1  0
 29 15  1  0
 25 18  1  0
M  END
$$$$
