OSNRNYVOCOFEIX-KBPBESRZSA-N
     RDKit          3D

 22 25  0  0  0  0  0  0  0  0999 V2000
    8.9330  -28.5360   25.6660 N   0  0  0  0  0  0  0  0  0  0  0  0
    8.1470  -27.9500   25.0550 C   0  0  0  0  0  0  0  0  0  0  0  0
    7.2270  -27.2690   24.3640 N   0  0  0  0  0  0  0  0  0  0  0  0
    6.4120  -27.8810   23.2940 C   0  0  1  0  0  0  0  0  0  0  0  0
    5.3900  -28.8700   23.8880 C   0  0  0  0  0  0  0  0  0  0  0  0
    4.1880  -28.8520   22.9350 C   0  0  2  0  0  0  0  0  0  0  0  0
    4.3850  -29.7880   21.8880 O   0  0  0  0  0  0  0  0  0  0  0  0
    4.2370  -27.4480   22.4150 C   0  0  0  0  0  0  0  0  0  0  0  0
    3.2440  -26.7370   21.7660 C   0  0  0  0  0  0  0  0  0  0  0  0
    3.5390  -25.4430   21.3230 C   0  0  0  0  0  0  0  0  0  0  0  0
    4.8120  -24.8530   21.5160 C   0  0  0  0  0  0  0  0  0  0  0  0
    5.0750  -23.4990   21.0170 C   0  0  0  0  0  0  0  0  0  0  0  0
    4.0070  -22.7630   20.6030 N   0  0  0  0  0  0  0  0  0  0  0  0
    4.2300  -21.5220   20.1310 C   0  0  0  0  0  0  0  0  0  0  0  0
    5.4020  -20.8790   20.0180 N   0  0  0  0  0  0  0  0  0  0  0  0
    6.4210  -21.6320   20.4580 C   0  0  0  0  0  0  0  0  0  0  0  0
    7.7280  -21.2280   20.4760 N   0  0  0  0  0  0  0  0  0  0  0  0
    8.5120  -22.2210   21.0030 C   0  0  0  0  0  0  0  0  0  0  0  0
    7.6880  -23.2800   21.3210 C   0  0  0  0  0  0  0  0  0  0  0  0
    6.3540  -22.9220   20.9660 C   0  0  0  0  0  0  0  0  0  0  0  0
    5.8040  -25.6130   22.1630 C   0  0  0  0  0  0  0  0  0  0  0  0
    5.5030  -26.8920   22.6160 C   0  0  0  0  0  0  0  0  0  0  0  0
  1  2  3  0
  2  3  1  0
  4  3  1  1
  4  5  1  0
  5  6  1  0
  6  7  1  6
  6  8  1  0
  8  9  2  0
  9 10  1  0
 10 11  2  0
 11 12  1  0
 12 13  2  0
 13 14  1  0
 14 15  2  0
 15 16  1  0
 16 17  1  0
 17 18  1  0
 18 19  2  0
 19 20  1  0
 11 21  1  0
 21 22  2  0
 22  4  1  0
 22  8  1  0
 20 12  1  0
 20 16  2  0
M  END
$$$$
