HFCJAKGWADMYJC-HAQNSBGRSA-N
     RDKit          3D

 23 26  0  0  0  0  0  0  0  0999 V2000
    4.2030  -29.7500   22.2080 N   0  0  0  0  0  0  0  0  0  0  0  0
    4.9510  -29.0530   22.7570 C   0  0  0  0  0  0  0  0  0  0  0  0
    5.9350  -28.2090   23.4480 C   0  0  0  0  0  0  0  0  0  0  0  0
    5.7260  -26.7200   23.1540 C   0  0  0  0  0  0  0  0  0  0  0  0
    4.5870  -26.4930   22.2610 N   0  0  0  0  0  0  0  0  0  0  0  0
    4.4160  -25.0890   21.8750 C   0  0  2  0  0  0  0  0  0  0  0  0
    4.4210  -24.8980   20.3500 C   0  0  0  0  0  0  0  0  0  0  0  0
    4.3600  -23.4190   19.9620 C   0  0  0  0  0  0  0  0  0  0  0  0
    5.4890  -22.6130   20.6150 C   0  0  1  0  0  0  0  0  0  0  0  0
    5.4330  -21.2180   20.2040 N   0  0  0  0  0  0  0  0  0  0  0  0
    4.2640  -20.7090   19.7360 N   0  0  0  0  0  0  0  0  0  0  0  0
    4.4560  -19.4210   19.4560 N   0  0  0  0  0  0  0  0  0  0  0  0
    5.7640  -19.1250   19.7170 C   0  0  0  0  0  0  0  0  0  0  0  0
    6.5260  -17.9510   19.5990 C   0  0  0  0  0  0  0  0  0  0  0  0
    7.8610  -17.9030   19.9140 N   0  0  0  0  0  0  0  0  0  0  0  0
    8.3880  -19.0660   20.3360 C   0  0  0  0  0  0  0  0  0  0  0  0
    9.6830  -19.3150   20.6990 N   0  0  0  0  0  0  0  0  0  0  0  0
    9.8150  -20.6440   21.0520 C   0  0  0  0  0  0  0  0  0  0  0  0
    8.5840  -21.2670   20.9200 C   0  0  0  0  0  0  0  0  0  0  0  0
    7.7060  -20.2520   20.4780 C   0  0  0  0  0  0  0  0  0  0  0  0
    6.3830  -20.2700   20.1740 C   0  0  0  0  0  0  0  0  0  0  0  0
    5.4790  -22.8020   22.1420 C   0  0  0  0  0  0  0  0  0  0  0  0
    5.5570  -24.2830   22.5180 C   0  0  0  0  0  0  0  0  0  0  0  0
  1  2  3  0
  2  3  1  0
  3  4  1  0
  4  5  1  0
  6  5  1  1
  6  7  1  0
  7  8  1  0
  8  9  1  0
  9 10  1  6
 10 11  1  0
 11 12  2  0
 12 13  1  0
 13 14  2  0
 14 15  1  0
 15 16  2  0
 16 17  1  0
 17 18  1  0
 18 19  2  0
 19 20  1  0
 20 21  2  0
  9 22  1  0
 22 23  1  0
 23  6  1  0
 21 10  1  0
 21 13  1  0
 20 16  1  0
M  END
$$$$
