GPSZYOIFQZPWEJ-UHFFFAOYSA-N
     RDKit          3D

 26 29  0  0  0  0  0  0  0  0999 V2000
   -5.5930   21.1520  -28.2230 C   0  0  0  0  0  0  0  0  0  0  0  0
   -4.2680   21.8020  -28.3990 C   0  0  0  0  0  0  0  0  0  0  0  0
   -3.3600   21.7120  -27.3530 N   0  0  0  0  0  0  0  0  0  0  0  0
   -2.2350   22.2960  -27.6750 C   0  0  0  0  0  0  0  0  0  0  0  0
   -1.1810   22.3490  -26.8560 N   0  0  0  0  0  0  0  0  0  0  0  0
   -2.1920   23.0050  -29.2320 S   0  0  0  0  0  0  0  0  0  0  0  0
   -3.8110   22.4970  -29.5100 C   0  0  0  0  0  0  0  0  0  0  0  0
   -4.4760   22.8300  -30.7660 C   0  0  0  0  0  0  0  0  0  0  0  0
   -4.8500   21.8590  -31.6650 C   0  0  0  0  0  0  0  0  0  0  0  0
   -5.4560   22.3220  -32.8030 C   0  0  0  0  0  0  0  0  0  0  0  0
   -5.6780   23.6250  -33.0480 N   0  0  0  0  0  0  0  0  0  0  0  0
   -5.2810   24.5090  -32.1150 C   0  0  0  0  0  0  0  0  0  0  0  0
   -5.5400   25.8400  -32.4230 N   0  0  0  0  0  0  0  0  0  0  0  0
   -5.2200   27.0580  -31.8160 C   0  0  0  0  0  0  0  0  0  0  0  0
   -5.6590   28.2980  -32.2710 C   0  0  0  0  0  0  0  0  0  0  0  0
   -5.3020   29.4880  -31.6130 C   0  0  0  0  0  0  0  0  0  0  0  0
   -4.4820   29.4910  -30.4780 C   0  0  0  0  0  0  0  0  0  0  0  0
   -4.1220   30.6560  -29.8100 N   0  0  0  0  0  0  0  0  0  0  0  0
   -2.6960   30.8620  -29.4910 C   0  0  0  0  0  0  0  0  0  0  0  0
   -2.5400   31.9150  -28.3820 C   0  0  0  0  0  0  0  0  0  0  0  0
   -3.2070   33.1430  -28.7140 O   0  0  0  0  0  0  0  0  0  0  0  0
   -4.6110   32.8990  -28.8920 C   0  0  0  0  0  0  0  0  0  0  0  0
   -4.8740   31.9030  -30.0320 C   0  0  0  0  0  0  0  0  0  0  0  0
   -4.0540   28.2390  -30.0220 C   0  0  0  0  0  0  0  0  0  0  0  0
   -4.4100   27.0490  -30.6740 C   0  0  0  0  0  0  0  0  0  0  0  0
   -4.6820   24.1450  -30.9750 N   0  0  0  0  0  0  0  0  0  0  0  0
  1  2  1  0
  2  3  1  0
  3  4  2  0
  4  5  1  0
  4  6  1  0
  6  7  1  0
  7  8  1  0
  8  9  2  0
  9 10  1  0
 10 11  2  0
 11 12  1  0
 12 13  1  0
 13 14  1  0
 14 15  2  0
 15 16  1  0
 16 17  2  0
 17 18  1  0
 18 19  1  0
 19 20  1  0
 20 21  1  0
 21 22  1  0
 22 23  1  0
 17 24  1  0
 24 25  2  0
 12 26  2  0
  7  2  2  0
 26  8  1  0
 25 14  1  0
 23 18  1  0
M  END
$$$$
