GPSZYOIFQZPWEJ-UHFFFAOYSA-N
     RDKit          3D

 26 29  0  0  0  0  0  0  0  0999 V2000
   -3.8300   25.3900  -31.2260 C   0  0  0  0  0  0  0  0  0  0  0  0
   -4.6400   24.3030  -31.8350 C   0  0  0  0  0  0  0  0  0  0  0  0
   -5.5130   24.6450  -32.8580 N   0  0  0  0  0  0  0  0  0  0  0  0
   -6.1220   23.5790  -33.3120 C   0  0  0  0  0  0  0  0  0  0  0  0
   -7.0100   23.6160  -34.3090 N   0  0  0  0  0  0  0  0  0  0  0  0
   -5.7100   22.1100  -32.5380 S   0  0  0  0  0  0  0  0  0  0  0  0
   -4.6270   22.9550  -31.5040 C   0  0  0  0  0  0  0  0  0  0  0  0
   -3.8860   22.2340  -30.4740 C   0  0  0  0  0  0  0  0  0  0  0  0
   -3.3640   20.9830  -30.7030 C   0  0  0  0  0  0  0  0  0  0  0  0
   -2.7010   20.4250  -29.6410 C   0  0  0  0  0  0  0  0  0  0  0  0
   -2.5600   21.0360  -28.4510 N   0  0  0  0  0  0  0  0  0  0  0  0
   -3.1010   22.2590  -28.3130 C   0  0  0  0  0  0  0  0  0  0  0  0
   -2.9190   22.8400  -27.0630 N   0  0  0  0  0  0  0  0  0  0  0  0
   -1.7990   23.1340  -26.2810 C   0  0  0  0  0  0  0  0  0  0  0  0
   -0.9280   24.1930  -26.5280 C   0  0  0  0  0  0  0  0  0  0  0  0
    0.1820   24.4350  -25.7000 C   0  0  0  0  0  0  0  0  0  0  0  0
    0.4760   23.6250  -24.5960 C   0  0  0  0  0  0  0  0  0  0  0  0
    1.5650   23.8520  -23.7630 N   0  0  0  0  0  0  0  0  0  0  0  0
    2.1970   25.1860  -23.7910 C   0  0  0  0  0  0  0  0  0  0  0  0
    3.6130   25.1230  -23.1970 C   0  0  0  0  0  0  0  0  0  0  0  0
    3.6160   24.5470  -21.8810 O   0  0  0  0  0  0  0  0  0  0  0  0
    3.1040   23.2060  -21.9380 C   0  0  0  0  0  0  0  0  0  0  0  0
    1.6590   23.1710  -22.4590 C   0  0  0  0  0  0  0  0  0  0  0  0
   -0.4100   22.5710  -24.3500 C   0  0  0  0  0  0  0  0  0  0  0  0
   -1.5210   22.3270  -25.1720 C   0  0  0  0  0  0  0  0  0  0  0  0
   -3.7640   22.8780  -29.2970 N   0  0  0  0  0  0  0  0  0  0  0  0
  1  2  1  0
  2  3  1  0
  3  4  2  0
  4  5  1  0
  4  6  1  0
  6  7  1  0
  7  8  1  0
  8  9  2  0
  9 10  1  0
 10 11  2  0
 11 12  1  0
 12 13  1  0
 13 14  1  0
 14 15  2  0
 15 16  1  0
 16 17  2  0
 17 18  1  0
 18 19  1  0
 19 20  1  0
 20 21  1  0
 21 22  1  0
 22 23  1  0
 17 24  1  0
 24 25  2  0
 12 26  2  0
  7  2  2  0
 26  8  1  0
 25 14  1  0
 23 18  1  0
M  END
$$$$
