RVBIUDMTBMMGLC-UHFFFAOYSA-N
     RDKit          3D

 31 34  0  0  0  0  0  0  0  0999 V2000
   -9.0090  -41.9840   35.1670 C   0  0  0  0  0  0  0  0  0  0  0  0
   -8.4060  -42.6980   34.0930 O   0  0  0  0  0  0  0  0  0  0  0  0
   -9.1930  -42.9590   33.0060 C   0  0  0  0  0  0  0  0  0  0  0  0
  -10.5500  -43.1410   33.2980 C   0  0  0  0  0  0  0  0  0  0  0  0
  -11.4710  -43.4160   32.2850 C   0  0  0  0  0  0  0  0  0  0  0  0
  -11.0350  -43.5120   30.9660 C   0  0  0  0  0  0  0  0  0  0  0  0
  -11.9790  -43.7850   30.0100 O   0  0  0  0  0  0  0  0  0  0  0  0
  -11.5610  -43.8840   28.6900 C   0  0  0  0  0  0  0  0  0  0  0  0
  -12.5970  -44.1840   27.6500 C   0  0  0  0  0  0  0  0  0  0  0  0
  -13.0330  -45.3120   27.4580 O   0  0  0  0  0  0  0  0  0  0  0  0
  -13.0020  -43.0740   26.9480 N   0  0  0  0  0  0  0  0  0  0  0  0
  -14.0050  -43.1420   25.9050 C   0  0  0  0  0  0  0  0  0  0  0  0
  -15.3730  -42.6990   26.4210 C   0  0  0  0  0  0  0  0  0  0  0  0
  -16.5190  -42.9850   25.4340 C   0  0  0  0  0  0  0  0  0  0  0  0
  -17.8680  -42.4410   25.9210 C   0  0  0  0  0  0  0  0  0  0  0  0
  -18.9660  -42.6250   24.8680 C   0  0  0  0  0  0  0  0  0  0  0  0
  -18.5950  -41.9990   23.5900 N   0  0  0  0  0  0  0  0  0  0  0  0
  -19.6680  -42.1420   22.5880 C   0  0  0  0  0  0  0  0  0  0  0  0
  -19.9860  -40.8590   21.8490 C   0  0  0  0  0  0  0  0  0  0  0  0
  -19.5270  -40.6570   20.5390 C   0  0  0  0  0  0  0  0  0  0  0  0
  -19.8350  -39.4830   19.8500 C   0  0  0  0  0  0  0  0  0  0  0  0
  -20.6100  -38.4990   20.4620 C   0  0  0  0  0  0  0  0  0  0  0  0
  -21.0780  -38.6900   21.7610 C   0  0  0  0  0  0  0  0  0  0  0  0
  -20.7700  -39.8640   22.4520 C   0  0  0  0  0  0  0  0  0  0  0  0
  -17.3460  -42.5750   23.0730 C   0  0  0  0  0  0  0  0  0  0  0  0
  -16.1960  -42.3800   24.0600 C   0  0  0  0  0  0  0  0  0  0  0  0
  -10.2950  -43.7310   28.2770 C   0  0  0  0  0  0  0  0  0  0  0  0
   -9.2520  -43.4380   29.2700 C   0  0  0  0  0  0  0  0  0  0  0  0
   -8.0830  -43.2900   28.9390 O   0  0  0  0  0  0  0  0  0  0  0  0
   -9.6860  -43.3310   30.6720 C   0  0  0  0  0  0  0  0  0  0  0  0
   -8.7590  -43.0560   31.6840 C   0  0  0  0  0  0  0  0  0  0  0  0
  1  2  1  0
  2  3  1  0
  3  4  2  0
  4  5  1  0
  5  6  2  0
  6  7  1  0
  7  8  1  0
  8  9  1  0
  9 10  2  0
  9 11  1  0
 11 12  1  0
 12 13  1  0
 13 14  1  0
 14 15  1  0
 15 16  1  0
 16 17  1  0
 17 18  1  0
 18 19  1  0
 19 20  2  0
 20 21  1  0
 21 22  2  0
 22 23  1  0
 23 24  2  0
 17 25  1  0
 25 26  1  0
  8 27  2  0
 27 28  1  0
 28 29  2  0
 28 30  1  0
 30 31  2  0
 31  3  1  0
 30  6  1  0
 26 14  1  0
 24 19  1  0
M  END
$$$$
