RVBIUDMTBMMGLC-UHFFFAOYSA-N
     RDKit          3D

 31 34  0  0  0  0  0  0  0  0999 V2000
  -22.7630  -39.5100   21.1850 C   0  0  0  0  0  0  0  0  0  0  0  0
  -22.4000  -39.6070   22.5580 O   0  0  0  0  0  0  0  0  0  0  0  0
  -21.1920  -40.1820   22.8390 C   0  0  0  0  0  0  0  0  0  0  0  0
  -20.2910  -40.2000   21.7680 C   0  0  0  0  0  0  0  0  0  0  0  0
  -19.0180  -40.7580   21.9090 C   0  0  0  0  0  0  0  0  0  0  0  0
  -18.6390  -41.3040   23.1320 C   0  0  0  0  0  0  0  0  0  0  0  0
  -17.3800  -41.8410   23.2190 O   0  0  0  0  0  0  0  0  0  0  0  0
  -16.9860  -42.3900   24.4310 C   0  0  0  0  0  0  0  0  0  0  0  0
  -15.6100  -42.9760   24.5180 C   0  0  0  0  0  0  0  0  0  0  0  0
  -15.0260  -43.4380   23.5460 O   0  0  0  0  0  0  0  0  0  0  0  0
  -15.0800  -42.9360   25.7860 N   0  0  0  0  0  0  0  0  0  0  0  0
  -13.7570  -43.4400   26.0870 C   0  0  0  0  0  0  0  0  0  0  0  0
  -13.8190  -44.8430   26.6880 C   0  0  0  0  0  0  0  0  0  0  0  0
  -12.9870  -44.9940   27.9730 C   0  0  0  0  0  0  0  0  0  0  0  0
  -11.9710  -43.8590   28.1570 C   0  0  0  0  0  0  0  0  0  0  0  0
  -11.2450  -43.9620   29.5020 C   0  0  0  0  0  0  0  0  0  0  0  0
  -12.1950  -43.9830   30.6250 N   0  0  0  0  0  0  0  0  0  0  0  0
  -11.4940  -44.0420   31.9220 C   0  0  0  0  0  0  0  0  0  0  0  0
  -10.0770  -44.5690   31.8250 C   0  0  0  0  0  0  0  0  0  0  0  0
   -8.9890  -43.7560   32.1730 C   0  0  0  0  0  0  0  0  0  0  0  0
   -7.6840  -44.2460   32.1030 C   0  0  0  0  0  0  0  0  0  0  0  0
   -7.4530  -45.5570   31.6870 C   0  0  0  0  0  0  0  0  0  0  0  0
   -8.5270  -46.3770   31.3440 C   0  0  0  0  0  0  0  0  0  0  0  0
   -9.8330  -45.8870   31.4140 C   0  0  0  0  0  0  0  0  0  0  0  0
  -13.1190  -45.1190   30.5020 C   0  0  0  0  0  0  0  0  0  0  0  0
  -13.9130  -45.0480   29.1980 C   0  0  0  0  0  0  0  0  0  0  0  0
  -17.7500  -42.4360   25.5320 C   0  0  0  0  0  0  0  0  0  0  0  0
  -19.1060  -41.8720   25.4820 C   0  0  0  0  0  0  0  0  0  0  0  0
  -19.8380  -41.8920   26.4630 O   0  0  0  0  0  0  0  0  0  0  0  0
  -19.5320  -41.2880   24.2010 C   0  0  0  0  0  0  0  0  0  0  0  0
  -20.8090  -40.7310   24.0630 C   0  0  0  0  0  0  0  0  0  0  0  0
  1  2  1  0
  2  3  1  0
  3  4  2  0
  4  5  1  0
  5  6  2  0
  6  7  1  0
  7  8  1  0
  8  9  1  0
  9 10  2  0
  9 11  1  0
 11 12  1  0
 12 13  1  0
 13 14  1  0
 14 15  1  0
 15 16  1  0
 16 17  1  0
 17 18  1  0
 18 19  1  0
 19 20  2  0
 20 21  1  0
 21 22  2  0
 22 23  1  0
 23 24  2  0
 17 25  1  0
 25 26  1  0
  8 27  2  0
 27 28  1  0
 28 29  2  0
 28 30  1  0
 30 31  2  0
 31  3  1  0
 30  6  1  0
 26 14  1  0
 24 19  1  0
M  END
$$$$
