RVBIUDMTBMMGLC-UHFFFAOYSA-N
     RDKit          3D

 31 34  0  0  0  0  0  0  0  0999 V2000
   -6.9770  -45.4500   31.5800 C   0  0  0  0  0  0  0  0  0  0  0  0
   -8.3050  -45.4060   32.0900 O   0  0  0  0  0  0  0  0  0  0  0  0
   -9.3050  -45.1630   31.1890 C   0  0  0  0  0  0  0  0  0  0  0  0
   -8.9390  -44.3350   30.1210 C   0  0  0  0  0  0  0  0  0  0  0  0
   -9.8600  -44.0000   29.1260 C   0  0  0  0  0  0  0  0  0  0  0  0
  -11.1590  -44.4950   29.1950 C   0  0  0  0  0  0  0  0  0  0  0  0
  -12.0240  -44.1350   28.1940 O   0  0  0  0  0  0  0  0  0  0  0  0
  -13.3230  -44.6200   28.2490 C   0  0  0  0  0  0  0  0  0  0  0  0
  -14.2640  -44.2220   27.1530 C   0  0  0  0  0  0  0  0  0  0  0  0
  -14.2040  -44.6970   26.0260 O   0  0  0  0  0  0  0  0  0  0  0  0
  -15.1900  -43.2830   27.5430 N   0  0  0  0  0  0  0  0  0  0  0  0
  -16.1990  -42.7720   26.6390 C   0  0  0  0  0  0  0  0  0  0  0  0
  -17.4980  -42.4520   27.3800 C   0  0  0  0  0  0  0  0  0  0  0  0
  -18.7350  -42.4440   26.4660 C   0  0  0  0  0  0  0  0  0  0  0  0
  -19.8090  -41.4530   26.9320 C   0  0  0  0  0  0  0  0  0  0  0  0
  -20.9730  -41.3700   25.9400 C   0  0  0  0  0  0  0  0  0  0  0  0
  -20.5050  -41.0180   24.5910 N   0  0  0  0  0  0  0  0  0  0  0  0
  -21.6300  -40.9000   23.6440 C   0  0  0  0  0  0  0  0  0  0  0  0
  -21.2170  -40.4340   22.2630 C   0  0  0  0  0  0  0  0  0  0  0  0
  -21.4510  -41.2400   21.1390 C   0  0  0  0  0  0  0  0  0  0  0  0
  -21.0880  -40.8040   19.8630 C   0  0  0  0  0  0  0  0  0  0  0  0
  -20.4920  -39.5540   19.6980 C   0  0  0  0  0  0  0  0  0  0  0  0
  -20.2600  -38.7420   20.8060 C   0  0  0  0  0  0  0  0  0  0  0  0
  -20.6220  -39.1770   22.0820 C   0  0  0  0  0  0  0  0  0  0  0  0
  -19.5390  -42.0110   24.1010 C   0  0  0  0  0  0  0  0  0  0  0  0
  -18.3250  -42.1060   25.0250 C   0  0  0  0  0  0  0  0  0  0  0  0
  -13.8000  -45.4190   29.2140 C   0  0  0  0  0  0  0  0  0  0  0  0
  -12.9060  -45.8280   30.3060 C   0  0  0  0  0  0  0  0  0  0  0  0
  -13.2970  -46.5570   31.2070 O   0  0  0  0  0  0  0  0  0  0  0  0
  -11.5260  -45.3190   30.2560 C   0  0  0  0  0  0  0  0  0  0  0  0
  -10.6070  -45.6570   31.2570 C   0  0  0  0  0  0  0  0  0  0  0  0
  1  2  1  0
  2  3  1  0
  3  4  2  0
  4  5  1  0
  5  6  2  0
  6  7  1  0
  7  8  1  0
  8  9  1  0
  9 10  2  0
  9 11  1  0
 11 12  1  0
 12 13  1  0
 13 14  1  0
 14 15  1  0
 15 16  1  0
 16 17  1  0
 17 18  1  0
 18 19  1  0
 19 20  2  0
 20 21  1  0
 21 22  2  0
 22 23  1  0
 23 24  2  0
 17 25  1  0
 25 26  1  0
  8 27  2  0
 27 28  1  0
 28 29  2  0
 28 30  1  0
 30 31  2  0
 31  3  1  0
 30  6  1  0
 26 14  1  0
 24 19  1  0
M  END
$$$$
