PGUCNZCUWCLRQN-UHFFFAOYSA-N
     RDKit          3D

 29 32  0  0  0  0  0  0  0  0999 V2000
    6.5240  -27.4030   23.4490 C   0  0  0  0  0  0  0  0  0  0  0  0
    6.3150  -25.9320   23.1170 C   0  0  0  0  0  0  0  0  0  0  0  0
    5.0680  -25.7050   22.2900 C   0  0  0  0  0  0  0  0  0  0  0  0
    4.1120  -26.7390   22.2390 C   0  0  0  0  0  0  0  0  0  0  0  0
    2.9510  -26.5960   21.4920 C   0  0  0  0  0  0  0  0  0  0  0  0
    2.0670  -27.6340   21.4840 O   0  0  0  0  0  0  0  0  0  0  0  0
    2.7070  -25.4330   20.7790 C   0  0  0  0  0  0  0  0  0  0  0  0
    3.6450  -24.3990   20.8190 C   0  0  0  0  0  0  0  0  0  0  0  0
    4.8360  -24.5110   21.5680 C   0  0  0  0  0  0  0  0  0  0  0  0
    5.7790  -23.3820   21.5700 C   0  0  0  0  0  0  0  0  0  0  0  0
    7.0940  -23.5280   21.1480 C   0  0  0  0  0  0  0  0  0  0  0  0
    7.9470  -22.4280   21.1740 C   0  0  0  0  0  0  0  0  0  0  0  0
    9.2880  -22.6070   20.8390 N   0  0  0  0  0  0  0  0  0  0  0  0
    7.4510  -21.2080   21.6730 C   0  0  0  0  0  0  0  0  0  0  0  0
    8.3330  -20.0270   21.8270 C   0  0  0  0  0  0  0  0  0  0  0  0
    8.9730  -19.4700   20.8420 N   0  0  0  0  0  0  0  0  0  0  0  0
    6.1040  -21.1240   22.0610 C   0  0  0  0  0  0  0  0  0  0  0  0
    5.5260  -19.9080   22.4840 N   0  0  0  0  0  0  0  0  0  0  0  0
    5.4640  -18.7040   21.6980 C   0  0  0  0  0  0  0  0  0  0  0  0
    3.9280  -18.8140   21.7540 C   0  0  0  0  0  0  0  0  0  0  0  0
    3.2290  -17.5720   21.9870 O   0  0  0  0  0  0  0  0  0  0  0  0
    2.5410  -16.9980   20.9460 C   0  0  0  0  0  0  0  0  0  0  0  0
    2.2070  -15.6470   20.8530 C   0  0  0  0  0  0  0  0  0  0  0  0
    1.4990  -15.1790   19.7420 C   0  0  0  0  0  0  0  0  0  0  0  0
    1.1210  -16.0580   18.7270 C   0  0  0  0  0  0  0  0  0  0  0  0
    1.4470  -17.4100   18.8230 C   0  0  0  0  0  0  0  0  0  0  0  0
    2.1540  -17.8770   19.9320 C   0  0  0  0  0  0  0  0  0  0  0  0
    4.1830  -19.7300   22.9650 C   0  0  0  0  0  0  0  0  0  0  0  0
    5.2870  -22.2040   22.0180 N   0  0  0  0  0  0  0  0  0  0  0  0
  1  2  1  0
  2  3  1  0
  3  4  2  0
  4  5  1  0
  5  6  1  0
  5  7  2  0
  7  8  1  0
  8  9  2  0
  9 10  1  0
 10 11  2  0
 11 12  1  0
 12 13  1  0
 12 14  2  0
 14 15  1  0
 15 16  2  0
 14 17  1  0
 17 18  1  0
 18 19  1  0
 19 20  1  0
 20 21  1  0
 21 22  1  0
 22 23  2  0
 23 24  1  0
 24 25  2  0
 25 26  1  0
 26 27  2  0
 20 28  1  0
 17 29  2  0
  9  3  1  0
 29 10  1  0
 28 18  1  0
 27 22  1  0
M  END
$$$$
