WEQANHSKIULRFP-QHCPKHFHSA-N
     RDKit          3D

 32 34  0  0  0  0  0  0  0  0999 V2000
   13.0850   13.3150   -7.0360 C   0  0  0  0  0  0  0  0  0  0  0  0
   12.6300   12.0050   -7.6650 C   0  0  0  0  0  0  0  0  0  0  0  0
   11.2280   12.0860   -8.2770 C   0  0  0  0  0  0  0  0  0  0  0  0
   10.8120   10.8410   -9.0310 C   0  0  0  0  0  0  0  0  0  0  0  0
   10.9950   10.8240  -10.4260 C   0  0  0  0  0  0  0  0  0  0  0  0
   10.7050    9.6610  -11.1010 C   0  0  0  0  0  0  0  0  0  0  0  0
   10.2660    8.5260  -10.4530 C   0  0  0  0  0  0  0  0  0  0  0  0
   10.0630    7.4660  -11.3310 O   0  0  0  0  0  0  0  0  0  0  0  0
   10.3940    8.0210  -12.5740 C   0  0  0  0  0  0  0  0  0  0  0  0
   10.3240    7.3950  -13.6220 O   0  0  0  0  0  0  0  0  0  0  0  0
   10.7920    9.3350  -12.4340 N   0  0  0  0  0  0  0  0  0  0  0  0
   11.1900   10.2130  -13.5040 C   0  0  0  0  0  0  0  0  0  0  0  0
   10.0520   11.1070  -13.9640 C   0  0  0  0  0  0  0  0  0  0  0  0
   10.0710    8.4810   -9.0800 C   0  0  0  0  0  0  0  0  0  0  0  0
    9.6950    7.1810   -8.4170 C   0  0  0  0  0  0  0  0  0  0  0  0
   10.6900    6.0450   -8.6870 C   0  0  0  0  0  0  0  0  0  0  0  0
   10.0170    4.6890   -8.8530 C   0  0  0  0  0  0  0  0  0  0  0  0
   10.2990    9.6820   -8.3760 C   0  0  0  0  0  0  0  0  0  0  0  0
   10.0940    9.6990   -7.0160 O   0  0  0  0  0  0  0  0  0  0  0  0
    9.1320   10.6970   -6.6190 C   0  0  2  0  0  0  0  0  0  0  0  0
    9.7430   11.6290   -5.5610 C   0  0  0  0  0  0  0  0  0  0  0  0
    9.8650   12.8440   -5.6140 O   0  0  0  0  0  0  0  0  0  0  0  0
   10.1590   10.9710   -4.4520 O   0  0  0  0  0  0  0  0  0  0  0  0
    7.8930   10.0120   -6.0620 C   0  0  0  0  0  0  0  0  0  0  0  0
    7.1610   10.6040   -5.0250 C   0  0  0  0  0  0  0  0  0  0  0  0
    6.0140    9.9840   -4.5220 C   0  0  0  0  0  0  0  0  0  0  0  0
    5.5740    8.7570   -5.0390 C   0  0  0  0  0  0  0  0  0  0  0  0
    4.3240    8.0710   -4.5150 C   0  0  0  0  0  0  0  0  0  0  0  0
    4.1690    8.2820   -3.0070 C   0  0  0  0  0  0  0  0  0  0  0  0
    4.3020    6.5800   -4.8620 C   0  0  0  0  0  0  0  0  0  0  0  0
    6.3070    8.1680   -6.0780 C   0  0  0  0  0  0  0  0  0  0  0  0
    7.4510    8.7870   -6.5850 C   0  0  0  0  0  0  0  0  0  0  0  0
  1  2  1  0
  2  3  1  0
  3  4  1  0
  4  5  2  0
  5  6  1  0
  6  7  2  0
  7  8  1  0
  8  9  1  0
  9 10  2  0
  9 11  1  0
 11 12  1  0
 12 13  1  0
  7 14  1  0
 14 15  1  0
 15 16  1  0
 16 17  1  0
 14 18  2  0
 18 19  1  0
 20 19  1  1
 20 21  1  0
 21 22  2  0
 21 23  1  0
 20 24  1  0
 24 25  2  0
 25 26  1  0
 26 27  2  0
 27 28  1  0
 28 29  1  0
 28 30  1  0
 27 31  1  0
 31 32  2  0
 18  4  1  0
 32 24  1  0
 11  6  1  0
M  END
$$$$
