GMPJYOVFXLKIAS-UHFFFAOYSA-N
     RDKit          3D

 31 35  0  0  0  0  0  0  0  0999 V2000
    9.6850  -18.5320   23.2720 C   0  0  0  0  0  0  0  0  0  0  0  0
    9.5480  -19.6350   21.8820 S   0  0  0  0  0  0  0  0  0  0  0  0
    9.8910  -20.9740   22.3120 O   0  0  0  0  0  0  0  0  0  0  0  0
   10.1840  -19.0210   20.7380 O   0  0  0  0  0  0  0  0  0  0  0  0
    7.8760  -19.6050   21.6050 N   0  0  0  0  0  0  0  0  0  0  0  0
    6.8600  -20.3630   22.4060 C   0  0  0  0  0  0  0  0  0  0  0  0
    5.9410  -20.4010   21.1550 C   0  0  0  0  0  0  0  0  0  0  0  0
    4.8890  -19.3000   21.1160 C   0  0  0  0  0  0  0  0  0  0  0  0
    4.1880  -19.1840   22.4010 C   0  0  0  0  0  0  0  0  0  0  0  0
    3.6540  -19.1280   23.4290 N   0  0  0  0  0  0  0  0  0  0  0  0
    5.3480  -21.7420   20.9820 N   0  0  0  0  0  0  0  0  0  0  0  0
    4.3060  -22.0500   20.1570 C   0  0  0  0  0  0  0  0  0  0  0  0
    4.0380  -23.3800   20.3760 C   0  0  0  0  0  0  0  0  0  0  0  0
    4.9430  -23.7870   21.3900 C   0  0  0  0  0  0  0  0  0  0  0  0
    5.0800  -25.1110   21.9920 C   0  0  0  0  0  0  0  0  0  0  0  0
    6.1900  -25.3300   22.8240 C   0  0  0  0  0  0  0  0  0  0  0  0
    6.4090  -26.5770   23.4080 C   0  0  0  0  0  0  0  0  0  0  0  0
    7.5660  -26.7950   24.2620 C   0  0  0  0  0  0  0  0  0  0  0  0
    7.9970  -27.9450   24.9660 C   0  0  0  0  0  0  0  0  0  0  0  0
    9.1360  -27.7490   25.6340 N   0  0  0  0  0  0  0  0  0  0  0  0
    9.4430  -26.4720   25.3640 N   0  0  0  0  0  0  0  0  0  0  0  0
    8.5400  -25.8580   24.5440 C   0  0  0  0  0  0  0  0  0  0  0  0
    5.4960  -27.6050   23.1410 C   0  0  0  0  0  0  0  0  0  0  0  0
    4.3800  -27.4210   22.3390 C   0  0  0  0  0  0  0  0  0  0  0  0
    3.5600  -28.4720   22.1590 N   0  0  0  0  0  0  0  0  0  0  0  0
    2.4570  -28.3070   21.4010 C   0  0  0  0  0  0  0  0  0  0  0  0
    2.1160  -27.1160   20.8000 C   0  0  0  0  0  0  0  0  0  0  0  0
    2.9690  -26.0320   20.9810 C   0  0  0  0  0  0  0  0  0  0  0  0
    4.1460  -26.1570   21.7550 C   0  0  0  0  0  0  0  0  0  0  0  0
    5.7430  -22.7710   21.7510 N   0  0  0  0  0  0  0  0  0  0  0  0
    7.2530  -20.1760   20.3650 C   0  0  0  0  0  0  0  0  0  0  0  0
  1  2  1  0
  2  3  2  0
  2  4  2  0
  2  5  1  0
  5  6  1  0
  6  7  1  0
  7  8  1  0
  8  9  1  0
  9 10  3  0
  7 11  1  0
 11 12  1  0
 12 13  2  0
 13 14  1  0
 14 15  1  0
 15 16  2  0
 16 17  1  0
 17 18  1  0
 18 19  1  0
 19 20  2  0
 20 21  1  0
 21 22  1  0
 17 23  2  0
 23 24  1  0
 24 25  2  0
 25 26  1  0
 26 27  2  0
 27 28  1  0
 28 29  2  0
 14 30  2  0
  7 31  1  0
 31  5  1  0
 30 11  1  0
 29 15  1  0
 22 18  2  0
 29 24  1  0
M  END
$$$$
