BGDYVTQSRKFIJW-UHFFFAOYSA-N
     RDKit          3D

 36 40  0  0  0  0  0  0  0  0999 V2000
  -22.7200  -40.2320   24.1180 C   0  0  0  0  0  0  0  0  0  0  0  0
  -22.4350  -40.5150   25.4820 O   0  0  0  0  0  0  0  0  0  0  0  0
  -21.1930  -41.0100   25.7680 C   0  0  0  0  0  0  0  0  0  0  0  0
  -20.6740  -41.2390   27.0440 C   0  0  0  0  0  0  0  0  0  0  0  0
  -19.3790  -41.7520   27.2020 C   0  0  0  0  0  0  0  0  0  0  0  0
  -18.5960  -42.0390   26.0830 C   0  0  0  0  0  0  0  0  0  0  0  0
  -17.2480  -42.5670   26.1920 C   0  0  0  0  0  0  0  0  0  0  0  0
  -16.5180  -42.8290   25.0940 C   0  0  0  0  0  0  0  0  0  0  0  0
  -15.1380  -43.3620   25.3230 C   0  0  0  0  0  0  0  0  0  0  0  0
  -14.6550  -44.2270   24.5940 O   0  0  0  0  0  0  0  0  0  0  0  0
  -14.4570  -42.8380   26.3900 N   0  0  0  0  0  0  0  0  0  0  0  0
  -13.1210  -43.2670   26.7490 C   0  0  0  0  0  0  0  0  0  0  0  0
  -13.1510  -44.2830   27.8900 C   0  0  0  0  0  0  0  0  0  0  0  0
  -13.0220  -45.7130   27.3670 C   0  0  0  0  0  0  0  0  0  0  0  0
  -11.9770  -46.4990   28.1680 C   0  0  0  0  0  0  0  0  0  0  0  0
  -11.0730  -45.5940   29.0050 C   0  0  0  0  0  0  0  0  0  0  0  0
  -11.1360  -45.9800   30.4090 N   0  0  0  0  0  0  0  0  0  0  0  0
  -10.9470  -44.9500   31.3490 C   0  0  0  0  0  0  0  0  0  0  0  0
   -9.6420  -44.6050   31.7500 C   0  0  0  0  0  0  0  0  0  0  0  0
   -9.4930  -43.5340   32.6320 C   0  0  0  0  0  0  0  0  0  0  0  0
  -10.5390  -42.8350   33.1320 N   0  0  0  0  0  0  0  0  0  0  0  0
  -11.7800  -43.1710   32.7580 C   0  0  0  0  0  0  0  0  0  0  0  0
  -12.8390  -42.4380   33.2800 C   0  0  0  0  0  0  0  0  0  0  0  0
  -14.1660  -42.7090   32.9410 C   0  0  0  0  0  0  0  0  0  0  0  0
  -14.4490  -43.7380   32.0560 C   0  0  0  0  0  0  0  0  0  0  0  0
  -13.4030  -44.4890   31.5200 C   0  0  0  0  0  0  0  0  0  0  0  0
  -12.0540  -44.2230   31.8620 C   0  0  0  0  0  0  0  0  0  0  0  0
   -8.1410  -43.1160   33.1530 C   0  0  0  0  0  0  0  0  0  0  0  0
   -6.9770  -43.6390   32.3180 C   0  0  0  0  0  0  0  0  0  0  0  0
   -7.1660  -45.1230   32.0380 C   0  0  0  0  0  0  0  0  0  0  0  0
   -8.4380  -45.3520   31.2230 C   0  0  0  0  0  0  0  0  0  0  0  0
  -17.0770  -42.5860   23.7440 C   0  0  0  0  0  0  0  0  0  0  0  0
  -16.4340  -42.8160   22.7220 O   0  0  0  0  0  0  0  0  0  0  0  0
  -18.3710  -42.0810   23.6670 O   0  0  0  0  0  0  0  0  0  0  0  0
  -19.1260  -41.8070   24.8210 C   0  0  0  0  0  0  0  0  0  0  0  0
  -20.4100  -41.2980   24.6490 C   0  0  0  0  0  0  0  0  0  0  0  0
  1  2  1  0
  2  3  1  0
  3  4  2  0
  4  5  1  0
  5  6  2  0
  6  7  1  0
  7  8  2  0
  8  9  1  0
  9 10  2  0
  9 11  1  0
 11 12  1  0
 12 13  1  0
 13 14  1  0
 14 15  1  0
 15 16  1  0
 16 17  1  0
 17 18  1  0
 18 19  2  0
 19 20  1  0
 20 21  2  0
 21 22  1  0
 22 23  2  0
 23 24  1  0
 24 25  2  0
 25 26  1  0
 26 27  2  0
 20 28  1  0
 28 29  1  0
 29 30  1  0
 30 31  1  0
  8 32  1  0
 32 33  2  0
 32 34  1  0
 34 35  1  0
 35 36  2  0
 36  3  1  0
 35  6  1  0
 27 18  1  0
 31 19  1  0
 27 22  1  0
M  END
$$$$
