DPUOLQHDNGRHBS-KTKRTIGZSA-N
     RDKit          3D

 24 23  0  0  0  0  0  0  0  0999 V2000
   44.8060  -42.6770   97.3930 C   0  0  0  0  0  0  0  0  0  0  0  0
   44.8380  -41.3680   98.1690 C   0  0  0  0  0  0  0  0  0  0  0  0
   43.4440  -40.9730   98.6540 C   0  0  0  0  0  0  0  0  0  0  0  0
   43.3390  -40.8560  100.1770 C   0  0  0  0  0  0  0  0  0  0  0  0
   44.3740  -41.7000  100.9250 C   0  0  0  0  0  0  0  0  0  0  0  0
   43.7570  -42.3680  102.1560 C   0  0  0  0  0  0  0  0  0  0  0  0
   43.2340  -41.3670  103.1930 C   0  0  0  0  0  0  0  0  0  0  0  0
   43.8290  -41.4910  104.6010 C   0  0  0  0  0  0  0  0  0  0  0  0
   44.9920  -42.4400  104.6730 C   0  0  0  0  0  0  0  0  0  0  0  0
   45.2380  -43.3690  105.6110 C   0  0  0  0  0  0  0  0  0  0  0  0
   44.4190  -43.6830  106.8310 C   0  0  0  0  0  0  0  0  0  0  0  0
   45.0990  -43.2480  108.1350 C   0  0  0  0  0  0  0  0  0  0  0  0
   46.2330  -42.2430  107.9070 C   0  0  0  0  0  0  0  0  0  0  0  0
   46.1800  -41.0420  108.8550 C   0  0  0  0  0  0  0  0  0  0  0  0
   45.2070  -39.9490  108.4090 C   0  0  0  0  0  0  0  0  0  0  0  0
   45.6990  -38.5660  108.8400 C   0  0  0  0  0  0  0  0  0  0  0  0
   46.5190  -37.8930  107.7390 C   0  0  0  0  0  0  0  0  0  0  0  0
   48.0190  -38.0760  107.9750 C   0  0  0  0  0  0  0  0  0  0  0  0
   48.8340  -37.0020  107.2520 C   0  0  0  0  0  0  0  0  0  0  0  0
   48.0690  -35.6760  107.1860 C   0  0  0  0  0  0  0  0  0  0  0  0
   48.9910  -34.4640  107.2800 C   0  0  0  0  0  0  0  0  0  0  0  0
   49.0890  -33.9060  108.6720 C   0  0  0  0  0  0  0  0  0  0  0  0
   49.9910  -33.2100  109.1040 O   0  0  0  0  0  0  0  0  0  0  0  0
   48.0690  -34.2780  109.4650 O   0  0  0  0  0  0  0  0  0  0  0  0
  1  2  1  0
  2  3  1  0
  3  4  1  0
  4  5  1  0
  5  6  1  0
  6  7  1  0
  7  8  1  0
  8  9  1  0
  9 10  2  0
 10 11  1  0
 11 12  1  0
 12 13  1  0
 13 14  1  0
 14 15  1  0
 15 16  1  0
 16 17  1  0
 17 18  1  0
 18 19  1  0
 19 20  1  0
 20 21  1  0
 21 22  1  0
 22 23  2  0
 22 24  1  0
M  END
$$$$
