IAFVOFFJCUHEHP-NRFANRHFSA-N
     RDKit          3D

 36 40  0  0  0  0  0  0  0  0999 V2000
   11.9330    0.9860   -3.1790 C   0  0  0  0  0  0  0  0  0  0  0  0
   10.4970    1.3320   -3.5390 C   0  0  0  0  0  0  0  0  0  0  0  0
   10.0920    2.6930   -2.9720 C   0  0  0  0  0  0  0  0  0  0  0  0
    9.1980    3.4540   -3.9300 C   0  0  0  0  0  0  0  0  0  0  0  0
    9.7150    3.8380   -5.1840 C   0  0  0  0  0  0  0  0  0  0  0  0
    8.9330    4.5300   -6.1210 C   0  0  0  0  0  0  0  0  0  0  0  0
    9.4230    4.9400   -7.4560 C   0  0  0  0  0  0  0  0  0  0  0  0
    9.6680    6.1970   -7.7940 N   0  0  0  0  0  0  0  0  0  0  0  0
   10.0950    6.2650   -9.1020 C   0  0  0  0  0  0  0  0  0  0  0  0
   10.1870    5.0560   -9.7550 C   0  0  0  0  0  0  0  0  0  0  0  0
    9.7230    3.7930   -8.7210 S   0  0  0  0  0  0  0  0  0  0  0  0
   10.5990    4.8720  -11.1750 C   0  0  0  0  0  0  0  0  0  0  0  0
   11.2720    6.1530  -11.7020 C   0  0  0  0  0  0  0  0  0  0  0  0
   10.5190    7.4260  -11.2730 C   0  0  0  0  0  0  0  0  0  0  0  0
   10.4510    7.5640   -9.7410 C   0  0  0  0  0  0  0  0  0  0  0  0
    7.6100    4.8300   -5.7650 C   0  0  0  0  0  0  0  0  0  0  0  0
    7.0800    4.4510   -4.5250 C   0  0  0  0  0  0  0  0  0  0  0  0
    7.8630    3.7520   -3.6060 C   0  0  0  0  0  0  0  0  0  0  0  0
    7.4340    3.3180   -2.3810 O   0  0  0  0  0  0  0  0  0  0  0  0
    6.7180    4.2390   -1.5590 C   0  0  0  0  0  0  0  0  0  0  0  0
    5.3930    3.5880   -1.1880 C   0  0  0  0  0  0  0  0  0  0  0  0
    4.5780    4.4550   -0.2370 C   0  0  0  0  0  0  0  0  0  0  0  0
    3.4890    5.0060   -0.9770 O   0  0  0  0  0  0  0  0  0  0  0  0
    3.7910    5.9160   -1.9530 C   0  0  0  0  0  0  0  0  0  0  0  0
    3.2200    5.6280   -3.2060 C   0  0  0  0  0  0  0  0  0  0  0  0
    3.4320    6.4610   -4.3090 C   0  0  0  0  0  0  0  0  0  0  0  0
    4.2150    7.5870   -4.1350 C   0  0  0  0  0  0  0  0  0  0  0  0
    4.7760    7.8860   -2.8900 C   0  0  0  0  0  0  0  0  0  0  0  0
    4.5820    7.0560   -1.7940 C   0  0  0  0  0  0  0  0  0  0  0  0
    5.5950    9.1370   -2.9590 C   0  0  0  0  0  0  0  0  0  0  0  0
    5.0590    9.7730   -4.2500 C   0  0  0  0  0  0  0  0  0  0  0  0
    4.5930    8.6180   -5.1670 C   0  0  1  0  0  0  0  0  0  0  0  0
    5.6980    8.1050   -6.0940 C   0  0  0  0  0  0  0  0  0  0  0  0
    6.8190    9.0980   -6.2140 C   0  0  0  0  0  0  0  0  0  0  0  0
    6.8420   10.2440   -5.8000 O   0  0  0  0  0  0  0  0  0  0  0  0
    7.8760    8.5890   -6.8810 O   0  0  0  0  0  0  0  0  0  0  0  0
  1  2  1  0
  2  3  1  0
  3  4  1  0
  4  5  2  0
  5  6  1  0
  6  7  1  0
  7  8  2  0
  8  9  1  0
  9 10  2  0
 10 11  1  0
 10 12  1  0
 12 13  1  0
 13 14  1  0
 14 15  1  0
  6 16  2  0
 16 17  1  0
 17 18  2  0
 18 19  1  0
 19 20  1  0
 20 21  1  0
 21 22  1  0
 22 23  1  0
 23 24  1  0
 24 25  2  0
 25 26  1  0
 26 27  2  0
 27 28  1  0
 28 29  2  0
 28 30  1  0
 30 31  1  0
 31 32  1  0
 32 33  1  6
 33 34  1  0
 34 35  2  0
 34 36  1  0
 18  4  1  0
 29 24  1  0
 11  7  1  0
 32 27  1  0
 15  9  1  0
M  END
$$$$
