FKTIPOLHKSMAHY-UHFFFAOYSA-N
     RDKit          3D

 29 30  0  0  0  0  0  0  0  0999 V2000
   -8.0900   11.1930   22.2800 C   0  0  0  0  0  0  0  0  0  0  0  0
   -6.9340   11.3370   21.4550 O   0  0  0  0  0  0  0  0  0  0  0  0
   -5.8550   11.8570   22.1030 C   0  0  0  0  0  0  0  0  0  0  0  0
   -5.8550   12.8930   22.7550 O   0  0  0  0  0  0  0  0  0  0  0  0
   -4.6270   11.0120   21.8630 C   0  0  0  0  0  0  0  0  0  0  0  0
   -4.0120   11.2380   20.4710 C   0  0  1  0  0  0  0  0  0  0  0  0
   -2.4780   11.4190   20.5280 C   0  0  0  0  0  0  0  0  0  0  0  0
   -1.7040   10.3610   21.3280 C   0  0  0  0  0  0  0  0  0  0  0  0
   -0.6490   10.9520   22.2700 C   0  0  0  0  0  0  0  0  0  0  0  0
   -1.2530   11.5440   23.5500 C   0  0  0  0  0  0  0  0  0  0  0  0
   -1.3070   10.5760   24.7060 C   0  0  0  0  0  0  0  0  0  0  0  0
   -0.2860    9.6390   24.9010 C   0  0  0  0  0  0  0  0  0  0  0  0
   -0.3440    8.7370   25.9680 C   0  0  0  0  0  0  0  0  0  0  0  0
   -1.4190    8.7460   26.8680 C   0  0  0  0  0  0  0  0  0  0  0  0
   -1.4180    7.8420   27.9420 N   0  0  0  0  0  0  0  0  0  0  0  0
   -0.9470    6.5710   27.9800 C   0  0  0  0  0  0  0  0  0  0  0  0
   -0.8550    5.7300   27.0100 N   0  0  0  0  0  0  0  0  0  0  0  0
   -0.5830    6.1700   29.2100 N   0  0  0  0  0  0  0  0  0  0  0  0
   -2.4300    9.6930   26.6710 C   0  0  0  0  0  0  0  0  0  0  0  0
   -2.3790   10.5960   25.6040 C   0  0  0  0  0  0  0  0  0  0  0  0
   -4.3640   10.1080   19.5060 C   0  0  0  0  0  0  0  0  0  0  0  0
   -4.5490    8.7880   19.9490 C   0  0  0  0  0  0  0  0  0  0  0  0
   -4.8930    7.7750   19.0510 C   0  0  0  0  0  0  0  0  0  0  0  0
   -5.0580    8.0630   17.6980 C   0  0  0  0  0  0  0  0  0  0  0  0
   -4.8720    9.3700   17.2420 C   0  0  0  0  0  0  0  0  0  0  0  0
   -5.0560    9.6820   15.8010 C   0  0  0  0  0  0  0  0  0  0  0  0
   -4.3090   10.5390   15.1800 N   0  0  0  0  0  0  0  0  0  0  0  0
   -6.0340    9.0720   15.0890 N   0  0  0  0  0  0  0  0  0  0  0  0
   -4.5280   10.3870   18.1400 C   0  0  0  0  0  0  0  0  0  0  0  0
  1  2  1  0
  2  3  1  0
  3  4  2  0
  3  5  1  0
  6  5  1  1
  6  7  1  0
  7  8  1  0
  8  9  1  0
  9 10  1  0
 10 11  1  0
 11 12  2  0
 12 13  1  0
 13 14  2  0
 14 15  1  0
 15 16  1  0
 16 17  2  0
 16 18  1  0
 14 19  1  0
 19 20  2  0
  6 21  1  0
 21 22  2  0
 22 23  1  0
 23 24  2  0
 24 25  1  0
 25 26  1  0
 26 27  2  0
 26 28  1  0
 25 29  2  0
 20 11  1  0
 29 21  1  0
M  END
$$$$
