IKAXKGNBVUEIGG-AULYBMBSSA-N
     RDKit          3D

 23 25  0  0  0  0  0  0  0  0999 V2000
    2.1120  -27.5230   21.0690 N   0  0  0  0  0  0  0  0  0  0  0  0
    3.3010  -27.6360   21.7330 C   0  0  0  0  0  0  0  0  0  0  0  0
    3.6810  -28.7200   22.1550 O   0  0  0  0  0  0  0  0  0  0  0  0
    4.1180  -26.4050   21.8890 C   0  0  0  0  0  0  0  0  0  0  0  0
    5.3070  -26.3970   22.6320 C   0  0  0  0  0  0  0  0  0  0  0  0
    6.0690  -25.2300   22.7690 C   0  0  0  0  0  0  0  0  0  0  0  0
    5.5950  -24.0770   22.1290 C   0  0  0  0  0  0  0  0  0  0  0  0
    4.4250  -24.0660   21.3830 C   0  0  0  0  0  0  0  0  0  0  0  0
    3.6730  -25.2400   21.2460 C   0  0  0  0  0  0  0  0  0  0  0  0
    4.1820  -22.8200   20.8740 N   0  0  0  0  0  0  0  0  0  0  0  0
    5.1690  -22.0500   21.2890 C   0  0  0  0  0  0  0  0  0  0  0  0
    5.2920  -20.5690   21.0150 C   0  0  2  0  0  0  0  0  0  0  0  0
    5.4090  -19.7760   22.3240 C   0  0  0  0  0  0  0  0  0  0  0  0
    4.0760  -19.6260   23.0600 C   0  0  0  0  0  0  0  0  0  0  0  0
    2.9880  -19.0450   22.1610 C   0  0  1  0  0  0  0  0  0  0  0  0
    3.3410  -17.7000   21.8320 O   0  0  0  0  0  0  0  0  0  0  0  0
    2.8190  -19.8520   20.8770 C   0  0  0  0  0  0  0  0  0  0  0  0
    4.1430  -20.0470   20.1320 C   0  0  0  0  0  0  0  0  0  0  0  0
    6.0710  -22.7860   22.0350 N   0  0  0  0  0  0  0  0  0  0  0  0
    7.2900  -22.2940   22.6540 C   0  0  0  0  0  0  0  0  0  0  0  0
    8.5620  -22.6680   21.8900 C   0  0  0  0  0  0  0  0  0  0  0  0
    9.1970  -21.5030   21.1400 C   0  0  0  0  0  0  0  0  0  0  0  0
   10.4990  -21.8680   20.7030 O   0  0  0  0  0  0  0  0  0  0  0  0
  1  2  1  0
  2  3  2  0
  2  4  1  0
  4  5  2  0
  5  6  1  0
  6  7  2  0
  7  8  1  0
  8  9  2  0
  8 10  1  0
 10 11  2  0
 12 11  1  6
 12 13  1  0
 13 14  1  0
 14 15  1  0
 15 16  1  1
 15 17  1  0
 17 18  1  0
 11 19  1  0
 19 20  1  0
 20 21  1  0
 21 22  1  0
 22 23  1  0
  9  4  1  0
 18 12  1  0
 19  7  1  0
M  END
$$$$
