KDCLRVJGUDZHRK-UHFFFAOYSA-N
     RDKit          3D

 41 45  0  0  0  0  0  0  0  0999 V2000
  -10.8000   -9.1880  -22.6710 C   0  0  0  0  0  0  0  0  0  0  0  0
  -11.1980   -8.4510  -23.9420 C   0  0  0  0  0  0  0  0  0  0  0  0
  -10.0470   -7.6590  -24.5760 C   0  0  0  0  0  0  0  0  0  0  0  0
   -9.4070   -8.3480  -25.7760 C   0  0  0  0  0  0  0  0  0  0  0  0
   -8.1580   -8.9880  -25.6050 C   0  0  0  0  0  0  0  0  0  0  0  0
   -7.6120   -8.9240  -24.3500 O   0  0  0  0  0  0  0  0  0  0  0  0
   -7.1690  -10.1360  -23.7420 C   0  0  0  0  0  0  0  0  0  0  0  0
   -7.2960   -9.9860  -22.2270 C   0  0  0  0  0  0  0  0  0  0  0  0
   -6.2250   -9.0850  -21.6100 C   0  0  0  0  0  0  0  0  0  0  0  0
   -6.7180   -7.7640  -21.2580 N   0  0  0  0  0  0  0  0  0  0  0  0
   -8.0460   -7.4190  -21.2270 C   0  0  0  0  0  0  0  0  0  0  0  0
   -8.1310   -6.0950  -20.8660 C   0  0  0  0  0  0  0  0  0  0  0  0
   -6.8070   -5.6110  -20.6810 C   0  0  0  0  0  0  0  0  0  0  0  0
   -6.2650   -4.3600  -20.3270 C   0  0  0  0  0  0  0  0  0  0  0  0
   -4.8770   -4.1860  -20.2310 C   0  0  0  0  0  0  0  0  0  0  0  0
   -4.5100   -2.9200  -19.8810 O   0  0  0  0  0  0  0  0  0  0  0  0
   -4.0570   -1.9490  -20.8300 C   0  0  0  0  0  0  0  0  0  0  0  0
   -4.4430   -2.3680  -22.2580 C   0  0  0  0  0  0  0  0  0  0  0  0
   -2.5210   -2.0160  -20.7240 C   0  0  0  0  0  0  0  0  0  0  0  0
   -4.4140   -0.4820  -20.5090 C   0  0  0  0  0  0  0  0  0  0  0  0
   -5.2710   -0.0810  -19.7380 O   0  0  0  0  0  0  0  0  0  0  0  0
   -3.6340    0.4190  -21.1470 O   0  0  0  0  0  0  0  0  0  0  0  0
   -4.0350   -5.2600  -20.4970 C   0  0  0  0  0  0  0  0  0  0  0  0
   -4.5450   -6.5190  -20.8490 C   0  0  0  0  0  0  0  0  0  0  0  0
   -5.9370   -6.6730  -20.9360 C   0  0  0  0  0  0  0  0  0  0  0  0
   -7.5590   -9.6340  -26.6790 C   0  0  0  0  0  0  0  0  0  0  0  0
   -8.1740   -9.6350  -27.9300 C   0  0  0  0  0  0  0  0  0  0  0  0
   -9.4100   -8.9940  -28.1510 C   0  0  0  0  0  0  0  0  0  0  0  0
  -10.0470   -8.9860  -29.4170 C   0  0  0  0  0  0  0  0  0  0  0  0
   -9.4470   -9.6690  -30.5810 C   0  0  0  0  0  0  0  0  0  0  0  0
   -9.5690  -10.8870  -30.6710 O   0  0  0  0  0  0  0  0  0  0  0  0
   -8.7040   -8.8900  -31.6120 C   0  0  0  0  0  0  0  0  0  0  0  0
   -7.3330   -9.0680  -31.8410 C   0  0  0  0  0  0  0  0  0  0  0  0
   -6.6810   -8.3080  -32.8160 C   0  0  0  0  0  0  0  0  0  0  0  0
   -7.3910   -7.3680  -33.5630 C   0  0  0  0  0  0  0  0  0  0  0  0
   -8.7540   -7.1830  -33.3370 C   0  0  0  0  0  0  0  0  0  0  0  0
   -9.4080   -7.9390  -32.3630 C   0  0  0  0  0  0  0  0  0  0  0  0
  -11.2650   -8.3340  -29.6340 C   0  0  0  0  0  0  0  0  0  0  0  0
  -11.8840   -7.6910  -28.5750 C   0  0  0  0  0  0  0  0  0  0  0  0
  -11.2820   -7.6990  -27.3140 C   0  0  0  0  0  0  0  0  0  0  0  0
  -10.0410   -8.3380  -27.0610 C   0  0  0  0  0  0  0  0  0  0  0  0
  1  2  1  0
  2  3  1  0
  3  4  1  0
  4  5  2  0
  5  6  1  0
  6  7  1  0
  7  8  1  0
  8  9  1  0
  9 10  1  0
 10 11  1  0
 11 12  2  0
 12 13  1  0
 13 14  2  0
 14 15  1  0
 15 16  1  0
 16 17  1  0
 17 18  1  0
 17 19  1  0
 17 20  1  0
 20 21  2  0
 20 22  1  0
 15 23  2  0
 23 24  1  0
 24 25  2  0
  5 26  1  0
 26 27  2  0
 27 28  1  0
 28 29  2  0
 29 30  1  0
 30 31  2  0
 30 32  1  0
 32 33  2  0
 33 34  1  0
 34 35  2  0
 35 36  1  0
 36 37  2  0
 29 38  1  0
 38 39  2  0
 39 40  1  0
 40 41  2  0
 41  4  1  0
 25 10  1  0
 41 28  1  0
 25 13  1  0
 37 32  1  0
M  END
$$$$
