VSJKLRGRUBVDOK-UHFFFAOYSA-N
     RDKit          3D

 34 37  0  0  0  0  0  0  0  0999 V2000
   -9.8650   -9.2670  -22.1460 C   0  0  0  0  0  0  0  0  0  0  0  0
   -8.9620   -8.5060  -22.9370 O   0  0  0  0  0  0  0  0  0  0  0  0
   -8.0030   -9.1950  -23.6350 C   0  0  0  0  0  0  0  0  0  0  0  0
   -7.0270  -10.0070  -23.0530 C   0  0  0  0  0  0  0  0  0  0  0  0
   -6.0860  -10.6630  -23.8480 C   0  0  0  0  0  0  0  0  0  0  0  0
   -6.1110  -10.5090  -25.2320 C   0  0  0  0  0  0  0  0  0  0  0  0
   -7.0800   -9.6990  -25.8400 C   0  0  0  0  0  0  0  0  0  0  0  0
   -8.0440   -9.0530  -25.0360 C   0  0  0  0  0  0  0  0  0  0  0  0
   -9.0710   -8.1570  -25.6910 C   0  0  0  0  0  0  0  0  0  0  0  0
   -9.3070   -8.5300  -27.1510 C   0  0  0  0  0  0  0  0  0  0  0  0
   -8.0140   -8.5420  -27.8690 N   0  0  0  0  0  0  0  0  0  0  0  0
   -8.0470   -8.3470  -29.5510 S   0  0  0  0  0  0  0  0  0  0  0  0
   -7.6630   -6.9860  -29.8610 O   0  0  0  0  0  0  0  0  0  0  0  0
   -7.3620   -9.4730  -30.1490 O   0  0  0  0  0  0  0  0  0  0  0  0
   -9.7770   -8.5010  -29.9530 C   0  0  0  0  0  0  0  0  0  0  0  0
  -10.2220   -9.5790  -30.7240 C   0  0  0  0  0  0  0  0  0  0  0  0
  -11.5740   -9.6760  -31.0530 C   0  0  0  0  0  0  0  0  0  0  0  0
  -12.4730   -8.7020  -30.6120 C   0  0  0  0  0  0  0  0  0  0  0  0
  -12.0260   -7.6200  -29.8420 C   0  0  0  0  0  0  0  0  0  0  0  0
  -13.0240   -6.6120  -29.3760 C   0  0  0  0  0  0  0  0  0  0  0  0
  -14.2110   -6.9070  -29.4130 O   0  0  0  0  0  0  0  0  0  0  0  0
  -12.4770   -5.4380  -28.8970 N   0  0  0  0  0  0  0  0  0  0  0  0
  -13.1430   -4.2770  -28.4300 C   0  0  0  0  0  0  0  0  0  0  0  0
  -13.5310   -3.2450  -29.2930 C   0  0  0  0  0  0  0  0  0  0  0  0
  -14.1870   -2.1100  -28.8060 C   0  0  0  0  0  0  0  0  0  0  0  0
  -14.4610   -1.9940  -27.4470 C   0  0  0  0  0  0  0  0  0  0  0  0
  -15.2690   -0.5950  -26.8540 Cl  0  0  0  0  0  0  0  0  0  0  0  0
  -14.0840   -3.0020  -26.5660 C   0  0  0  0  0  0  0  0  0  0  0  0
  -13.4250   -4.1460  -27.0470 C   0  0  0  0  0  0  0  0  0  0  0  0
  -13.0210   -5.2160  -26.0910 C   0  0  0  0  0  0  0  0  0  0  0  0
  -13.7580   -5.7600  -25.2840 O   0  0  0  0  0  0  0  0  0  0  0  0
  -11.7230   -5.5500  -26.1840 O   0  0  0  0  0  0  0  0  0  0  0  0
  -10.6650   -7.5020  -29.5380 C   0  0  0  0  0  0  0  0  0  0  0  0
   -7.0820   -9.5650  -27.3500 C   0  0  0  0  0  0  0  0  0  0  0  0
  1  2  1  0
  2  3  1  0
  3  4  2  0
  4  5  1  0
  5  6  2  0
  6  7  1  0
  7  8  2  0
  8  9  1  0
  9 10  1  0
 10 11  1  0
 11 12  1  0
 12 13  2  0
 12 14  2  0
 12 15  1  0
 15 16  2  0
 16 17  1  0
 17 18  2  0
 18 19  1  0
 19 20  1  0
 20 21  2  0
 20 22  1  0
 22 23  1  0
 23 24  2  0
 24 25  1  0
 25 26  2  0
 26 27  1  0
 26 28  1  0
 28 29  2  0
 29 30  1  0
 30 31  2  0
 30 32  1  0
 19 33  2  0
 11 34  1  0
  8  3  1  0
 33 15  1  0
 34  7  1  0
 29 23  1  0
M  END
$$$$
