XNXUDGXKTVZKLB-GOSISDBHSA-N
     RDKit          3D

 34 37  0  0  0  0  0  0  0  0999 V2000
   10.9220    1.2450   32.3850 C   0  0  0  0  0  0  0  0  0  0  0  0
   11.8570    1.2260   31.2130 C   0  0  0  0  0  0  0  0  0  0  0  0
   12.9780    2.0560   31.1970 C   0  0  0  0  0  0  0  0  0  0  0  0
   13.8320    2.0180   30.0980 C   0  0  0  0  0  0  0  0  0  0  0  0
   13.5380    1.1640   29.0370 C   0  0  0  0  0  0  0  0  0  0  0  0
   14.3240    1.0220   27.9250 O   0  0  0  0  0  0  0  0  0  0  0  0
   14.5450    2.1380   27.1470 C   0  0  0  0  0  0  0  0  0  0  0  0
   13.4850    2.8830   26.6260 C   0  0  0  0  0  0  0  0  0  0  0  0
   13.7410    3.9870   25.8090 C   0  0  0  0  0  0  0  0  0  0  0  0
   15.0500    4.3500   25.4790 C   0  0  0  0  0  0  0  0  0  0  0  0
   15.3500    5.4480   24.6560 N   0  0  0  0  0  0  0  0  0  0  0  0
   15.5630    5.5230   23.2630 C   0  0  0  0  0  0  0  0  0  0  0  0
   16.7660    5.1210   22.7960 N   0  0  0  0  0  0  0  0  0  0  0  0
   16.9500    5.1590   21.4800 C   0  0  0  0  0  0  0  0  0  0  0  0
   16.0630    5.5770   20.5760 N   0  0  0  0  0  0  0  0  0  0  0  0
   14.8880    6.0050   21.0430 C   0  0  0  0  0  0  0  0  0  0  0  0
   13.9850    6.4740   20.1020 C   0  0  0  0  0  0  0  0  0  0  0  0
   12.7390    6.9850   20.4610 C   0  0  0  0  0  0  0  0  0  0  0  0
   12.3750    7.0160   21.7970 C   0  0  0  0  0  0  0  0  0  0  0  0
   13.2430    6.5030   22.7650 C   0  0  0  0  0  0  0  0  0  0  0  0
   12.9040    6.5830   24.0940 O   0  0  0  0  0  0  0  0  0  0  0  0
   12.4950    7.8780   24.5640 C   0  0  2  0  0  0  0  0  0  0  0  0
   13.5500    8.3180   25.5740 C   0  0  0  0  0  0  0  0  0  0  0  0
   11.1290    7.7850   25.2730 C   0  0  0  0  0  0  0  0  0  0  0  0
   10.9780    6.9870   26.2040 O   0  0  0  0  0  0  0  0  0  0  0  0
   10.0910    8.6040   24.8400 N   0  0  0  0  0  0  0  0  0  0  0  0
   10.1410    9.5170   23.7080 C   0  0  0  0  0  0  0  0  0  0  0  0
    8.7910    8.4860   25.4870 C   0  0  0  0  0  0  0  0  0  0  0  0
   14.5410    6.0110   22.4060 C   0  0  0  0  0  0  0  0  0  0  0  0
   16.1000    3.5650   25.9810 C   0  0  0  0  0  0  0  0  0  0  0  0
   15.8650    2.4610   26.8180 C   0  0  0  0  0  0  0  0  0  0  0  0
   17.0130    1.6490   27.3410 C   0  0  0  0  0  0  0  0  0  0  0  0
   12.4170    0.3550   29.1440 C   0  0  0  0  0  0  0  0  0  0  0  0
   11.5680    0.3700   30.2010 N   0  0  0  0  0  0  0  0  0  0  0  0
  1  2  1  0
  2  3  2  0
  3  4  1  0
  4  5  2  0
  5  6  1  0
  6  7  1  0
  7  8  2  0
  8  9  1  0
  9 10  2  0
 10 11  1  0
 11 12  1  0
 12 13  2  0
 13 14  1  0
 14 15  2  0
 15 16  1  0
 16 17  2  0
 17 18  1  0
 18 19  2  0
 19 20  1  0
 20 21  1  0
 21 22  1  0
 22 23  1  1
 22 24  1  0
 24 25  2  0
 24 26  1  0
 26 27  1  0
 26 28  1  0
 20 29  2  0
 10 30  1  0
 30 31  2  0
 31 32  1  0
  5 33  1  0
 33 34  2  0
 34  2  1  0
 31  7  1  0
 29 12  1  0
 29 16  1  0
M  END
$$$$
