OSSVQVKVEZPBSO-UHFFFAOYSA-M
     RDKit          3D

 28 30  0  0  0  0  0  0  0  0999 V2000
  -11.7990   -9.0740  -28.2290 O   0  0  0  0  0  0  0  0  0  0  0  0
  -10.9910   -8.1760  -28.4310 C   0  0  0  0  0  0  0  0  0  0  0  0
  -10.0530   -7.6830  -27.5550 N   0  0  0  0  0  0  0  0  0  0  0  0
   -9.7720   -8.0590  -26.2250 C   0  0  0  0  0  0  0  0  0  0  0  0
  -10.7280   -7.9710  -25.2050 C   0  0  0  0  0  0  0  0  0  0  0  0
  -10.4170   -8.3640  -23.9020 C   0  0  0  0  0  0  0  0  0  0  0  0
   -9.1460   -8.8540  -23.6150 C   0  0  0  0  0  0  0  0  0  0  0  0
   -8.8050   -9.2430  -22.3430 O   0  0  0  0  0  0  0  0  0  0  0  0
   -7.9660   -8.3900  -21.6610 C   0  0  0  0  0  0  0  0  0  0  0  0
   -6.5880   -8.5980  -21.5670 C   0  0  0  0  0  0  0  0  0  0  0  0
   -5.7540   -7.7310  -20.9330 N   0  0  0  0  0  0  0  0  0  0  0  0
   -6.3640   -6.6420  -20.4080 C   0  0  0  0  0  0  0  0  0  0  0  0
   -7.7300   -6.4310  -20.5190 C   0  0  0  0  0  0  0  0  0  0  0  0
   -8.4780   -5.0410  -19.8540 Cl  0  0  0  0  0  0  0  0  0  0  0  0
   -8.5620   -7.2860  -21.1490 N   0  0  0  0  0  0  0  0  0  0  0  0
   -8.1730   -8.9180  -24.6100 C   0  0  0  0  0  0  0  0  0  0  0  0
   -8.4700   -8.5370  -25.9330 C   0  0  0  0  0  0  0  0  0  0  0  0
   -7.3830   -8.6480  -26.9910 C   0  0  0  0  0  0  0  0  0  0  0  0
   -6.6620   -9.7020  -26.9720 O   0  0  0  0  0  0  0  0  0  0  0  0
   -7.2650   -7.6860  -27.8110 O   0  0  0  0  0  0  0  0  0  0  0  0
  -11.0090   -7.4730  -29.7430 C   0  0  0  0  0  0  0  0  0  0  0  0
  -11.9260   -6.4240  -29.9330 C   0  0  0  0  0  0  0  0  0  0  0  0
  -11.9950   -5.7580  -31.1590 C   0  0  0  0  0  0  0  0  0  0  0  0
  -11.1540   -6.1440  -32.2000 C   0  0  0  0  0  0  0  0  0  0  0  0
  -11.2420   -5.3310  -33.7150 Cl  0  0  0  0  0  0  0  0  0  0  0  0
  -10.2410   -7.1820  -32.0250 C   0  0  0  0  0  0  0  0  0  0  0  0
  -10.1640   -7.8490  -30.7960 C   0  0  0  0  0  0  0  0  0  0  0  0
   -8.9600   -9.0820  -30.6540 Cl  0  0  0  0  0  0  0  0  0  0  0  0
  1  2  2  0
  2  3  1  0
  3  4  1  0
  4  5  2  0
  5  6  1  0
  6  7  2  0
  7  8  1  0
  8  9  1  0
  9 10  2  0
 10 11  1  0
 11 12  2  0
 12 13  1  0
 13 14  1  0
 13 15  2  0
  7 16  1  0
 16 17  2  0
 17 18  1  0
 18 19  2  0
 18 20  1  0
  2 21  1  0
 21 22  2  0
 22 23  1  0
 23 24  2  0
 24 25  1  0
 24 26  1  0
 26 27  2  0
 27 28  1  0
 17  4  1  0
 27 21  1  0
 15  9  1  0
M  CHG  1  20  -1
M  END
$$$$
