JVSRYBVSQFIXMI-YTCPBCGMSA-N
     RDKit          3D

 49 52  0  0  0  0  0  0  0  0999 V2000
  129.8340  -12.9390  158.3890 N   0  0  0  0  0  0  0  0  0  0  0  0
  128.7120  -13.4990  158.1180 C   0  0  0  0  0  0  0  0  0  0  0  0
  128.1800  -13.3220  156.9030 N   0  0  0  0  0  0  0  0  0  0  0  0
  127.9600  -14.2670  158.9290 N   0  0  0  0  0  0  0  0  0  0  0  0
  128.2200  -14.5800  160.3180 C   0  0  0  0  0  0  0  0  0  0  0  0
  128.1210  -16.0910  160.5390 C   0  0  0  0  0  0  0  0  0  0  0  0
  127.2470  -16.4740  161.7380 C   0  0  0  0  0  0  0  0  0  0  0  0
  127.3870  -15.5510  162.9550 C   0  0  2  0  0  0  0  0  0  0  0  0
  128.4310  -16.0690  163.8490 N   0  0  0  0  0  0  0  0  0  0  0  0
  129.6270  -15.4180  164.0330 C   0  0  0  0  0  0  0  0  0  0  0  0
  129.9130  -14.3860  163.4260 O   0  0  0  0  0  0  0  0  0  0  0  0
  130.5640  -16.0360  165.0900 C   0  0  2  0  0  0  0  0  0  0  0  0
  132.0120  -15.5790  164.8220 C   0  0  0  0  0  0  0  0  0  0  0  0
  132.9640  -15.9410  165.9390 C   0  0  0  0  0  0  0  0  0  0  0  0
  133.9120  -16.9640  165.7790 C   0  0  0  0  0  0  0  0  0  0  0  0
  134.8040  -17.2720  166.8110 C   0  0  0  0  0  0  0  0  0  0  0  0
  134.7500  -16.5670  168.0130 C   0  0  0  0  0  0  0  0  0  0  0  0
  133.8020  -15.5630  168.1760 C   0  0  0  0  0  0  0  0  0  0  0  0
  133.7470  -14.8880  169.3330 F   0  0  0  0  0  0  0  0  0  0  0  0
  132.9120  -15.2460  167.1560 C   0  0  0  0  0  0  0  0  0  0  0  0
  130.4260  -17.4880  164.9910 N   0  0  0  0  0  0  0  0  0  0  0  0
  130.3610  -18.3030  166.0910 C   0  0  0  0  0  0  0  0  0  0  0  0
  130.4000  -17.8730  167.2420 O   0  0  0  0  0  0  0  0  0  0  0  0
  130.1950  -19.7950  165.7790 C   0  0  1  0  0  0  0  0  0  0  0  0
  131.4220  -20.5670  166.2850 C   0  0  0  0  0  0  0  0  0  0  0  0
  132.5730  -20.4800  165.3070 C   0  0  0  0  0  0  0  0  0  0  0  0
  133.8920  -20.6750  165.7400 C   0  0  0  0  0  0  0  0  0  0  0  0
  134.9480  -20.6380  164.8280 C   0  0  0  0  0  0  0  0  0  0  0  0
  134.6950  -20.4140  163.4750 C   0  0  0  0  0  0  0  0  0  0  0  0
  133.3860  -20.2190  163.0360 C   0  0  0  0  0  0  0  0  0  0  0  0
  132.3290  -20.2500  163.9450 C   0  0  0  0  0  0  0  0  0  0  0  0
  128.9760  -20.2560  166.4920 N   0  0  0  0  0  0  0  0  0  0  0  0
  127.6690  -20.7430  165.5570 S   0  0  0  0  0  0  0  0  0  0  0  0
  126.9090  -21.6180  166.4230 O   0  0  0  0  0  0  0  0  0  0  0  0
  127.0940  -19.5500  164.9760 O   0  0  0  0  0  0  0  0  0  0  0  0
  128.4960  -21.7210  164.2950 C   0  0  0  0  0  0  0  0  0  0  0  0
  128.1690  -21.1520  162.9410 C   0  0  0  0  0  0  0  0  0  0  0  0
  126.9610  -21.4800  162.3060 C   0  0  0  0  0  0  0  0  0  0  0  0
  126.6560  -20.9480  161.0520 C   0  0  0  0  0  0  0  0  0  0  0  0
  127.5540  -20.0890  160.4200 C   0  0  0  0  0  0  0  0  0  0  0  0
  128.7610  -19.7640  161.0370 C   0  0  0  0  0  0  0  0  0  0  0  0
  129.0680  -20.2940  162.2910 C   0  0  0  0  0  0  0  0  0  0  0  0
  126.0880  -15.5030  163.7820 C   0  0  0  0  0  0  0  0  0  0  0  0
  125.4220  -16.5320  163.9300 O   0  0  0  0  0  0  0  0  0  0  0  0
  125.7530  -14.2130  164.3680 C   0  0  0  0  0  0  0  0  0  0  0  0
  126.5000  -13.1350  164.2250 N   0  0  0  0  0  0  0  0  0  0  0  0
  125.9230  -12.0840  164.9210 C   0  0  0  0  0  0  0  0  0  0  0  0
  124.7470  -12.3740  165.5800 C   0  0  0  0  0  0  0  0  0  0  0  0
  124.3380  -14.0170  165.3230 S   0  0  0  0  0  0  0  0  0  0  0  0
  1  2  2  0
  2  3  1  0
  2  4  1  0
  4  5  1  0
  5  6  1  0
  6  7  1  0
  8  7  1  6
  8  9  1  0
  9 10  1  0
 10 11  2  0
 10 12  1  0
 12 13  1  6
 13 14  1  0
 14 15  2  0
 15 16  1  0
 16 17  2  0
 17 18  1  0
 18 19  1  0
 18 20  2  0
 12 21  1  0
 21 22  1  0
 22 23  2  0
 22 24  1  0
 24 25  1  1
 25 26  1  0
 26 27  2  0
 27 28  1  0
 28 29  2  0
 29 30  1  0
 30 31  2  0
 24 32  1  0
 32 33  1  0
 33 34  2  0
 33 35  2  0
 33 36  1  0
 36 37  1  0
 37 38  2  0
 38 39  1  0
 39 40  2  0
 40 41  1  0
 41 42  2  0
  8 43  1  0
 43 44  2  0
 43 45  1  0
 45 46  2  0
 46 47  1  0
 47 48  2  0
 48 49  1  0
 20 14  1  0
 31 26  1  0
 42 37  1  0
 49 45  1  0
M  END
$$$$
