PQEQQMLZYPTIEQ-UHFFFAOYSA-N
     RDKit          3D

 37 40  0  0  0  0  0  0  0  0999 V2000
  128.1170  -21.6080  162.5490 C   0  0  0  0  0  0  0  0  0  0  0  0
  127.9110  -20.7510  163.6720 O   0  0  0  0  0  0  0  0  0  0  0  0
  126.8470  -19.8970  163.5180 C   0  0  0  0  0  0  0  0  0  0  0  0
  125.6500  -20.3750  162.9710 C   0  0  0  0  0  0  0  0  0  0  0  0
  124.6390  -19.4850  162.6210 C   0  0  0  0  0  0  0  0  0  0  0  0
  123.1800  -20.0800  161.9300 Cl  0  0  0  0  0  0  0  0  0  0  0  0
  124.8110  -18.1150  162.7900 C   0  0  0  0  0  0  0  0  0  0  0  0
  126.0050  -17.6260  163.3420 C   0  0  0  0  0  0  0  0  0  0  0  0
  126.1750  -16.1530  163.5250 C   0  0  0  0  0  0  0  0  0  0  0  0
  126.9750  -15.5670  162.8050 O   0  0  0  0  0  0  0  0  0  0  0  0
  125.4280  -15.5950  164.5350 N   0  0  0  0  0  0  0  0  0  0  0  0
  125.3600  -14.2550  164.9180 C   0  0  0  0  0  0  0  0  0  0  0  0
  126.0900  -13.2300  164.3270 C   0  0  0  0  0  0  0  0  0  0  0  0
  125.9310  -11.9260  164.8020 C   0  0  0  0  0  0  0  0  0  0  0  0
  125.0490  -11.6860  165.8470 C   0  0  0  0  0  0  0  0  0  0  0  0
  124.8230  -10.1000  166.4580 Cl  0  0  0  0  0  0  0  0  0  0  0  0
  124.3600  -12.7630  166.3760 C   0  0  0  0  0  0  0  0  0  0  0  0
  124.4960  -14.0400  165.9340 N   0  0  0  0  0  0  0  0  0  0  0  0
  127.0370  -18.5160  163.7260 C   0  0  0  0  0  0  0  0  0  0  0  0
  128.2330  -17.9750  164.2570 N   0  0  0  0  0  0  0  0  0  0  0  0
  129.4600  -17.8540  163.6260 C   0  0  0  0  0  0  0  0  0  0  0  0
  129.7250  -18.4310  162.5730 O   0  0  0  0  0  0  0  0  0  0  0  0
  130.4570  -17.0800  164.3700 C   0  0  0  0  0  0  0  0  0  0  0  0
  131.0990  -15.6240  163.7200 S   0  0  0  0  0  0  0  0  0  0  0  0
  132.1100  -15.3800  165.0640 C   0  0  0  0  0  0  0  0  0  0  0  0
  131.9920  -16.3740  166.0180 C   0  0  0  0  0  0  0  0  0  0  0  0
  132.7810  -16.3750  167.3060 C   0  0  0  0  0  0  0  0  0  0  0  0
  134.2050  -16.6670  167.1710 N   0  0  0  0  0  0  0  0  0  0  0  0
  135.0900  -15.5180  167.0430 C   0  0  0  0  0  0  0  0  0  0  0  0
  134.6990  -17.9330  166.9600 C   0  0  0  0  0  0  0  0  0  0  0  0
  135.6670  -18.1850  166.1500 N   0  0  0  0  0  0  0  0  0  0  0  0
  136.1370  -19.5480  165.9690 C   0  0  0  0  0  0  0  0  0  0  0  0
  135.0430  -20.5500  166.2490 C   0  0  0  0  0  0  0  0  0  0  0  0
  134.5010  -20.2360  167.6200 C   0  0  0  0  0  0  0  0  0  0  0  0
  134.0530  -18.8780  167.6920 O   0  0  0  0  0  0  0  0  0  0  0  0
  131.0270  -17.3600  165.6030 C   0  0  0  0  0  0  0  0  0  0  0  0
  130.6420  -18.7190  166.5860 Cl  0  0  0  0  0  0  0  0  0  0  0  0
  1  2  1  0
  2  3  1  0
  3  4  2  0
  4  5  1  0
  5  6  1  0
  5  7  2  0
  7  8  1  0
  8  9  1  0
  9 10  2  0
  9 11  1  0
 11 12  1  0
 12 13  2  0
 13 14  1  0
 14 15  2  0
 15 16  1  0
 15 17  1  0
 17 18  2  0
  8 19  2  0
 19 20  1  0
 20 21  1  0
 21 22  2  0
 21 23  1  0
 23 24  1  0
 24 25  1  0
 25 26  2  0
 26 27  1  0
 27 28  1  0
 28 29  1  0
 28 30  1  0
 30 31  2  0
 31 32  1  0
 32 33  1  0
 33 34  1  0
 34 35  1  0
 26 36  1  0
 36 37  1  0
 19  3  1  0
 36 23  2  0
 18 12  1  0
 35 30  1  0
M  END
$$$$
