MWONLFLWDWHANV-UHFFFAOYSA-N
     RDKit          3D

 30 33  0  0  0  0  0  0  0  0999 V2000
  130.8370  -12.1260  157.3600 C   0  0  0  0  0  0  0  0  0  0  0  0
  129.5070  -12.5720  157.6020 O   0  0  0  0  0  0  0  0  0  0  0  0
  129.2270  -13.8760  157.2950 C   0  0  0  0  0  0  0  0  0  0  0  0
  129.6930  -14.5410  156.1560 C   0  0  0  0  0  0  0  0  0  0  0  0
  129.3240  -15.8700  155.9110 C   0  0  0  0  0  0  0  0  0  0  0  0
  128.4830  -16.5430  156.7950 C   0  0  0  0  0  0  0  0  0  0  0  0
  128.0200  -15.8980  157.9410 C   0  0  0  0  0  0  0  0  0  0  0  0
  128.4120  -14.5770  158.1930 C   0  0  0  0  0  0  0  0  0  0  0  0
  127.9150  -13.9260  159.4210 C   0  0  0  0  0  0  0  0  0  0  0  0
  127.0180  -13.0870  159.3170 O   0  0  0  0  0  0  0  0  0  0  0  0
  128.4000  -14.2450  160.7010 N   0  0  0  0  0  0  0  0  0  0  0  0
  129.7250  -14.4870  160.9080 N   0  0  0  0  0  0  0  0  0  0  0  0
  129.7660  -14.7760  162.2210 C   0  0  0  0  0  0  0  0  0  0  0  0
  131.0050  -15.1150  162.9410 C   0  0  0  0  0  0  0  0  0  0  0  0
  132.2510  -14.8310  162.3850 C   0  0  0  0  0  0  0  0  0  0  0  0
  133.4010  -15.1920  163.0830 C   0  0  0  0  0  0  0  0  0  0  0  0
  133.2790  -15.8210  164.3160 C   0  0  0  0  0  0  0  0  0  0  0  0
  132.0060  -16.0650  164.8020 C   0  0  0  0  0  0  0  0  0  0  0  0
  130.8740  -15.7220  164.1510 N   0  0  0  0  0  0  0  0  0  0  0  0
  128.5350  -14.7470  162.8380 N   0  0  0  0  0  0  0  0  0  0  0  0
  127.6970  -14.4240  161.8820 C   0  0  0  0  0  0  0  0  0  0  0  0
  126.3610  -14.2620  161.9820 N   0  0  0  0  0  0  0  0  0  0  0  0
  125.6350  -14.8350  163.0890 C   0  0  0  0  0  0  0  0  0  0  0  0
  125.3620  -13.7620  164.1160 C   0  0  0  0  0  0  0  0  0  0  0  0
  126.0340  -12.5300  164.0600 C   0  0  0  0  0  0  0  0  0  0  0  0
  125.7970  -11.5550  165.0280 C   0  0  0  0  0  0  0  0  0  0  0  0
  124.8930  -11.8100  166.0530 C   0  0  0  0  0  0  0  0  0  0  0  0
  124.6660  -10.8740  166.9810 F   0  0  0  0  0  0  0  0  0  0  0  0
  124.2270  -13.0270  166.1350 C   0  0  0  0  0  0  0  0  0  0  0  0
  124.4660  -14.0050  165.1700 C   0  0  0  0  0  0  0  0  0  0  0  0
  1  2  1  0
  2  3  1  0
  3  4  2  0
  4  5  1  0
  5  6  2  0
  6  7  1  0
  7  8  2  0
  8  9  1  0
  9 10  2  0
  9 11  1  0
 11 12  1  0
 12 13  2  0
 13 14  1  0
 14 15  2  0
 15 16  1  0
 16 17  2  0
 17 18  1  0
 18 19  2  0
 13 20  1  0
 20 21  2  0
 21 22  1  0
 22 23  1  0
 23 24  1  0
 24 25  2  0
 25 26  1  0
 26 27  2  0
 27 28  1  0
 27 29  1  0
 29 30  2  0
  8  3  1  0
 21 11  1  0
 30 24  1  0
 19 14  1  0
M  END
$$$$
