MWONLFLWDWHANV-UHFFFAOYSA-N
     RDKit          3D

 30 33  0  0  0  0  0  0  0  0999 V2000
  132.9460  -14.7670  162.2210 C   0  0  0  0  0  0  0  0  0  0  0  0
  132.2090  -15.1550  163.3750 O   0  0  0  0  0  0  0  0  0  0  0  0
  131.9360  -16.4890  163.5150 C   0  0  0  0  0  0  0  0  0  0  0  0
  132.9020  -17.5000  163.5230 C   0  0  0  0  0  0  0  0  0  0  0  0
  132.5220  -18.8430  163.6390 C   0  0  0  0  0  0  0  0  0  0  0  0
  131.1750  -19.1890  163.7410 C   0  0  0  0  0  0  0  0  0  0  0  0
  130.2010  -18.1920  163.7460 C   0  0  0  0  0  0  0  0  0  0  0  0
  130.5890  -16.8480  163.6540 C   0  0  0  0  0  0  0  0  0  0  0  0
  129.5350  -15.8160  163.6760 C   0  0  0  0  0  0  0  0  0  0  0  0
  129.2930  -15.2500  164.7440 O   0  0  0  0  0  0  0  0  0  0  0  0
  128.8210  -15.4330  162.5280 N   0  0  0  0  0  0  0  0  0  0  0  0
  129.4700  -15.0760  161.3850 N   0  0  0  0  0  0  0  0  0  0  0  0
  128.4570  -14.7590  160.5610 C   0  0  0  0  0  0  0  0  0  0  0  0
  128.6480  -14.3040  159.1730 C   0  0  0  0  0  0  0  0  0  0  0  0
  127.9460  -14.8980  158.1260 C   0  0  0  0  0  0  0  0  0  0  0  0
  128.1740  -14.4600  156.8250 C   0  0  0  0  0  0  0  0  0  0  0  0
  129.0910  -13.4390  156.6010 C   0  0  0  0  0  0  0  0  0  0  0  0
  129.7450  -12.8990  157.6940 C   0  0  0  0  0  0  0  0  0  0  0  0
  129.5400  -13.2990  158.9670 N   0  0  0  0  0  0  0  0  0  0  0  0
  127.2110  -14.8810  161.1360 N   0  0  0  0  0  0  0  0  0  0  0  0
  127.4520  -15.2910  162.3580 C   0  0  0  0  0  0  0  0  0  0  0  0
  126.5520  -15.5630  163.3250 N   0  0  0  0  0  0  0  0  0  0  0  0
  125.2340  -14.9780  163.2830 C   0  0  0  0  0  0  0  0  0  0  0  0
  125.1770  -13.8070  164.2360 C   0  0  0  0  0  0  0  0  0  0  0  0
  125.9340  -12.6510  163.9930 C   0  0  0  0  0  0  0  0  0  0  0  0
  125.8990  -11.5850  164.8920 C   0  0  0  0  0  0  0  0  0  0  0  0
  125.1100  -11.6760  166.0340 C   0  0  0  0  0  0  0  0  0  0  0  0
  125.0760  -10.6540  166.8950 F   0  0  0  0  0  0  0  0  0  0  0  0
  124.3630  -12.8170  166.3000 C   0  0  0  0  0  0  0  0  0  0  0  0
  124.4010  -13.8850  165.4040 C   0  0  0  0  0  0  0  0  0  0  0  0
  1  2  1  0
  2  3  1  0
  3  4  2  0
  4  5  1  0
  5  6  2  0
  6  7  1  0
  7  8  2  0
  8  9  1  0
  9 10  2  0
  9 11  1  0
 11 12  1  0
 12 13  2  0
 13 14  1  0
 14 15  2  0
 15 16  1  0
 16 17  2  0
 17 18  1  0
 18 19  2  0
 13 20  1  0
 20 21  2  0
 21 22  1  0
 22 23  1  0
 23 24  1  0
 24 25  2  0
 25 26  1  0
 26 27  2  0
 27 28  1  0
 27 29  1  0
 29 30  2  0
  8  3  1  0
 21 11  1  0
 30 24  1  0
 19 14  1  0
M  END
$$$$
