PVAHNJQQAFBHBW-UHFFFAOYSA-N
     RDKit          3D

 31 34  0  0  0  0  0  0  0  0999 V2000
  142.2820  115.3600   42.5230 C   0  0  0  0  0  0  0  0  0  0  0  0
  141.6960  116.3790   42.2790 C   0  0  0  0  0  0  0  0  0  0  0  0
  140.9790  117.6280   41.9860 C   0  0  0  0  0  0  0  0  0  0  0  0
  139.9750  117.4600   40.9380 N   0  0  0  0  0  0  0  0  0  0  0  0
  138.7130  116.8860   41.3920 C   0  0  0  0  0  0  0  0  0  0  0  0
  138.3850  115.6230   40.6740 C   0  0  0  0  0  0  0  0  0  0  0  0
  138.9750  114.3750   40.7140 C   0  0  0  0  0  0  0  0  0  0  0  0
  138.2620  113.5220   39.8260 C   0  0  0  0  0  0  0  0  0  0  0  0
  138.3860  112.1710   39.4530 C   0  0  0  0  0  0  0  0  0  0  0  0
  137.4970  111.6170   38.5220 C   0  0  0  0  0  0  0  0  0  0  0  0
  137.7230  110.2960   38.2440 O   0  0  0  0  0  0  0  0  0  0  0  0
  137.7420  109.3920   39.3480 C   0  0  0  0  0  0  0  0  0  0  0  0
  136.3530  109.3580   39.9890 C   0  0  0  0  0  0  0  0  0  0  0  0
  136.3680  109.9080   41.4210 C   0  0  0  0  0  0  0  0  0  0  0  0
  135.3270  111.0010   41.7300 C   0  0  0  0  0  0  0  0  0  0  0  0
  135.9510  112.3100   42.2290 C   0  0  0  0  0  0  0  0  0  0  0  0
  134.8720  113.3520   42.5400 C   0  0  0  0  0  0  0  0  0  0  0  0
  134.0250  113.6080   41.3630 N   0  0  0  0  0  0  0  0  0  0  0  0
  133.0070  114.6370   41.6490 C   0  0  0  0  0  0  0  0  0  0  0  0
  133.2760  115.9630   40.9680 C   0  0  0  0  0  0  0  0  0  0  0  0
  133.1290  117.1680   41.6720 C   0  0  0  0  0  0  0  0  0  0  0  0
  133.3960  118.3900   41.0530 C   0  0  0  0  0  0  0  0  0  0  0  0
  133.8170  118.4210   39.7250 C   0  0  0  0  0  0  0  0  0  0  0  0
  133.9720  117.2310   39.0160 C   0  0  0  0  0  0  0  0  0  0  0  0
  133.7050  116.0080   39.6330 C   0  0  0  0  0  0  0  0  0  0  0  0
  133.3710  112.3710   40.9090 C   0  0  0  0  0  0  0  0  0  0  0  0
  134.4020  111.2990   40.5440 C   0  0  0  0  0  0  0  0  0  0  0  0
  136.4860  112.4070   37.9710 C   0  0  0  0  0  0  0  0  0  0  0  0
  136.3430  113.7550   38.3260 C   0  0  0  0  0  0  0  0  0  0  0  0
  137.2460  114.2840   39.2540 C   0  0  0  0  0  0  0  0  0  0  0  0
  137.3450  115.5520   39.7760 N   0  0  0  0  0  0  0  0  0  0  0  0
  1  2  3  0
  2  3  1  0
  3  4  1  0
  4  5  1  0
  5  6  1  0
  6  7  2  0
  7  8  1  0
  8  9  2  0
  9 10  1  0
 10 11  1  0
 11 12  1  0
 12 13  1  0
 13 14  1  0
 14 15  1  0
 15 16  1  0
 16 17  1  0
 17 18  1  0
 18 19  1  0
 19 20  1  0
 20 21  2  0
 21 22  1  0
 22 23  2  0
 23 24  1  0
 24 25  2  0
 18 26  1  0
 26 27  1  0
 10 28  2  0
 28 29  1  0
 29 30  2  0
 30 31  1  0
 31  6  1  0
 30  8  1  0
 27 15  1  0
 25 20  1  0
M  END
$$$$
