IQSQCPMGGRPOBO-UHFFFAOYSA-N
     RDKit          3D

 40 43  0  0  0  0  0  0  0  0999 V2000
  134.2870  -19.2860  167.4490 C   0  0  0  0  0  0  0  0  0  0  0  0
  133.8190  -20.4880  166.6480 C   0  0  0  0  0  0  0  0  0  0  0  0
  132.3880  -20.4490  166.5750 O   0  0  0  0  0  0  0  0  0  0  0  0
  131.8590  -19.6740  165.6040 C   0  0  0  0  0  0  0  0  0  0  0  0
  132.2860  -19.4710  164.4820 O   0  0  0  0  0  0  0  0  0  0  0  0
  130.5650  -19.0390  166.1260 C   0  0  0  0  0  0  0  0  0  0  0  0
  129.8850  -19.6960  166.9120 O   0  0  0  0  0  0  0  0  0  0  0  0
  130.2810  -17.7190  165.7390 N   0  0  0  0  0  0  0  0  0  0  0  0
  130.4860  -16.6720  166.7380 C   0  0  0  0  0  0  0  0  0  0  0  0
  131.9420  -16.2780  166.8550 C   0  0  0  0  0  0  0  0  0  0  0  0
  132.7300  -16.0840  165.7080 C   0  0  0  0  0  0  0  0  0  0  0  0
  134.0630  -15.6990  165.8350 C   0  0  0  0  0  0  0  0  0  0  0  0
  134.8010  -15.5180  164.7300 F   0  0  0  0  0  0  0  0  0  0  0  0
  134.6410  -15.5000  167.0800 C   0  0  0  0  0  0  0  0  0  0  0  0
  133.8620  -15.6850  168.2130 C   0  0  0  0  0  0  0  0  0  0  0  0
  134.4050  -15.4940  169.4240 F   0  0  0  0  0  0  0  0  0  0  0  0
  132.5250  -16.0650  168.1150 C   0  0  0  0  0  0  0  0  0  0  0  0
  129.7230  -17.3680  164.4750 C   0  0  0  0  0  0  0  0  0  0  0  0
  128.8080  -18.2110  163.8390 C   0  0  0  0  0  0  0  0  0  0  0  0
  128.2650  -17.8530  162.6080 C   0  0  0  0  0  0  0  0  0  0  0  0
  128.6240  -16.6470  162.0060 C   0  0  0  0  0  0  0  0  0  0  0  0
  129.5510  -15.7730  162.6070 C   0  0  0  0  0  0  0  0  0  0  0  0
  130.0690  -16.1540  163.8570 C   0  0  0  0  0  0  0  0  0  0  0  0
  129.9180  -14.5900  161.9770 N   0  0  0  0  0  0  0  0  0  0  0  0
  130.9100  -13.6730  162.5070 C   0  0  0  0  0  0  0  0  0  0  0  0
  129.5800  -14.5140  160.5560 C   0  0  0  0  0  0  0  0  0  0  0  0
  128.1580  -15.0550  160.3040 C   0  0  2  0  0  0  0  0  0  0  0  0
  127.9340  -15.1480  158.7850 C   0  0  0  0  0  0  0  0  0  0  0  0
  127.0740  -14.1510  160.9320 C   0  0  0  0  0  0  0  0  0  0  0  0
  126.4690  -14.8140  162.0460 O   0  0  0  0  0  0  0  0  0  0  0  0
  126.0680  -14.0410  163.0980 C   0  0  0  0  0  0  0  0  0  0  0  0
  125.0430  -14.3420  163.9970 C   0  0  0  0  0  0  0  0  0  0  0  0
  124.7350  -13.4540  165.0350 C   0  0  0  0  0  0  0  0  0  0  0  0
  125.4530  -12.2620  165.1740 C   0  0  0  0  0  0  0  0  0  0  0  0
  125.1230  -11.3100  166.2660 C   0  0  0  0  0  0  0  0  0  0  0  0
  125.9510  -10.3990  166.6680 N   0  0  0  0  0  0  0  0  0  0  0  0
  123.9190  -11.3770  166.8880 N   0  0  0  0  0  0  0  0  0  0  0  0
  126.4800  -11.9580  164.2760 C   0  0  0  0  0  0  0  0  0  0  0  0
  126.7850  -12.8500  163.2460 C   0  0  0  0  0  0  0  0  0  0  0  0
  128.0110  -16.4030  160.7990 O   0  0  0  0  0  0  0  0  0  0  0  0
  1  2  1  0
  2  3  1  0
  3  4  1  0
  4  5  2  0
  4  6  1  0
  6  7  2  0
  6  8  1  0
  8  9  1  0
  9 10  1  0
 10 11  2  0
 11 12  1  0
 12 13  1  0
 12 14  2  0
 14 15  1  0
 15 16  1  0
 15 17  2  0
  8 18  1  0
 18 19  2  0
 19 20  1  0
 20 21  2  0
 21 22  1  0
 22 23  2  0
 22 24  1  0
 24 25  1  0
 24 26  1  0
 26 27  1  0
 27 28  1  6
 27 29  1  0
 29 30  1  0
 30 31  1  0
 31 32  2  0
 32 33  1  0
 33 34  2  0
 34 35  1  0
 35 36  2  0
 35 37  1  0
 34 38  1  0
 38 39  2  0
 27 40  1  0
 17 10  1  0
 23 18  1  0
 39 31  1  0
 40 21  1  0
M  END
$$$$
