KEWCBOBJEQHYIV-UHFFFAOYSA-N
     RDKit          3D

 33 37  0  0  0  0  0  0  0  0999 V2000
  127.6230  -15.6880  163.3950 F   0  0  0  0  0  0  0  0  0  0  0  0
  126.3760  -15.7750  162.8410 C   0  0  0  0  0  0  0  0  0  0  0  0
  126.5240  -15.4630  161.5220 F   0  0  0  0  0  0  0  0  0  0  0  0
  125.8420  -17.2120  163.0100 C   0  0  0  0  0  0  0  0  0  0  0  0
  126.3600  -17.8880  164.1970 N   0  0  0  0  0  0  0  0  0  0  0  0
  126.9390  -19.1360  164.1090 C   0  0  0  0  0  0  0  0  0  0  0  0
  126.1780  -20.2660  164.1920 N   0  0  0  0  0  0  0  0  0  0  0  0
  126.7550  -21.4920  164.0940 C   0  0  0  0  0  0  0  0  0  0  0  0
  128.1060  -21.7340  163.9160 C   0  0  0  0  0  0  0  0  0  0  0  0
  128.8490  -20.5720  163.8500 C   0  0  0  0  0  0  0  0  0  0  0  0
  130.2000  -20.4670  163.6880 O   0  0  0  0  0  0  0  0  0  0  0  0
  130.4340  -19.1150  163.6970 C   0  0  0  0  0  0  0  0  0  0  0  0
  131.8540  -18.6840  163.5590 C   0  0  0  0  0  0  0  0  0  0  0  0
  132.3390  -17.8700  164.7440 C   0  0  0  0  0  0  0  0  0  0  0  0
  132.8680  -18.6400  165.8170 C   0  0  0  0  0  0  0  0  0  0  0  0
  133.4040  -18.0460  166.9580 C   0  0  0  0  0  0  0  0  0  0  0  0
  134.0410  -19.0250  168.2170 Cl  0  0  0  0  0  0  0  0  0  0  0  0
  133.4330  -16.6680  167.0690 C   0  0  0  0  0  0  0  0  0  0  0  0
  132.9110  -15.8870  166.0350 C   0  0  0  0  0  0  0  0  0  0  0  0
  132.3420  -16.4610  164.8680 C   0  0  0  0  0  0  0  0  0  0  0  0
  131.8300  -15.5300  163.9040 N   0  0  0  0  0  0  0  0  0  0  0  0
  132.3350  -15.0720  162.7110 C   0  0  0  0  0  0  0  0  0  0  0  0
  131.5510  -14.1540  162.1880 N   0  0  0  0  0  0  0  0  0  0  0  0
  130.5170  -14.1140  163.0610 C   0  0  0  0  0  0  0  0  0  0  0  0
  130.6190  -14.9330  164.1040 N   0  0  0  0  0  0  0  0  0  0  0  0
  129.3550  -18.3690  163.8360 N   0  0  0  0  0  0  0  0  0  0  0  0
  128.3310  -19.2920  163.9400 C   0  0  0  0  0  0  0  0  0  0  0  0
  125.4520  -14.7140  163.5040 C   0  0  2  0  0  0  0  0  0  0  0  0
  126.0320  -13.3050  163.2730 C   0  0  0  0  0  0  0  0  0  0  0  0
  125.1570  -12.2210  163.8980 C   0  0  0  0  0  0  0  0  0  0  0  0
  124.8830  -12.5280  165.3650 C   0  0  0  0  0  0  0  0  0  0  0  0
  124.3450  -13.9460  165.5380 C   0  0  0  0  0  0  0  0  0  0  0  0
  125.2450  -14.9450  164.9570 N   0  0  0  0  0  0  0  0  0  0  0  0
  1  2  1  0
  2  3  1  0
  2  4  1  0
  4  5  1  0
  5  6  1  0
  6  7  2  0
  7  8  1  0
  8  9  2  0
  9 10  1  0
 10 11  1  0
 11 12  1  0
 12 13  1  0
 13 14  1  0
 14 15  2  0
 15 16  1  0
 16 17  1  0
 16 18  2  0
 18 19  1  0
 19 20  2  0
 20 21  1  0
 21 22  1  0
 22 23  2  0
 23 24  1  0
 24 25  2  0
 12 26  2  0
 26 27  1  0
 28  2  1  1
 28 29  1  0
 29 30  1  0
 30 31  1  0
 31 32  1  0
 32 33  1  0
 27  6  1  0
 33 28  1  0
 27 10  2  0
 20 14  1  0
 25 21  1  0
M  END
$$$$
