IDQNCHCNBVCUHC-UHFFFAOYSA-N
     RDKit          3D

 40 45  0  0  0  0  0  0  0  0999 V2000
   18.7520    3.7240   22.1720 C   0  0  0  0  0  0  0  0  0  0  0  0
   17.4240    4.1700   22.4170 O   0  0  0  0  0  0  0  0  0  0  0  0
   16.8650    3.8220   23.6160 C   0  0  0  0  0  0  0  0  0  0  0  0
   15.9210    4.5510   24.3200 C   0  0  0  0  0  0  0  0  0  0  0  0
   15.4650    4.0790   25.5540 C   0  0  0  0  0  0  0  0  0  0  0  0
   14.5540    4.8770   26.2070 O   0  0  0  0  0  0  0  0  0  0  0  0
   13.4000    5.2030   25.3820 C   0  0  2  0  0  0  0  0  0  0  0  0
   13.2570    6.7280   25.4470 C   0  0  0  0  0  0  0  0  0  0  0  0
   12.0690    7.2200   24.6260 C   0  0  0  0  0  0  0  0  0  0  0  0
   10.8210    6.6330   25.1200 N   0  0  0  0  0  0  0  0  0  0  0  0
    9.6740    7.1170   24.3530 C   0  0  0  0  0  0  0  0  0  0  0  0
   10.8760    5.1560   25.0990 C   0  0  0  0  0  0  0  0  0  0  0  0
   12.0840    4.5540   25.8410 C   0  0  0  0  0  0  0  0  0  0  0  0
   12.0990    3.2160   25.5980 F   0  0  0  0  0  0  0  0  0  0  0  0
   11.9230    4.6990   27.1840 F   0  0  0  0  0  0  0  0  0  0  0  0
   15.8700    2.8110   26.0650 C   0  0  0  0  0  0  0  0  0  0  0  0
   15.3900    2.1500   27.2240 C   0  0  0  0  0  0  0  0  0  0  0  0
   14.3320    2.7230   27.9650 N   0  0  0  0  0  0  0  0  0  0  0  0
   13.3660    2.1440   28.8050 C   0  0  0  0  0  0  0  0  0  0  0  0
   12.1670    1.6020   28.3310 C   0  0  0  0  0  0  0  0  0  0  0  0
   11.2370    1.0360   29.2060 C   0  0  0  0  0  0  0  0  0  0  0  0
   11.4980    1.0110   30.5760 C   0  0  0  0  0  0  0  0  0  0  0  0
   10.5830    0.4330   31.4220 O   0  0  0  0  0  0  0  0  0  0  0  0
    9.4240    1.1280   31.7270 C   0  0  0  0  0  0  0  0  0  0  0  0
    8.2630    0.2520   31.8650 C   0  0  0  0  0  0  0  0  0  0  0  0
    7.0690    0.7810   32.1820 C   0  0  0  0  0  0  0  0  0  0  0  0
    6.9540    2.1540   32.3830 N   0  0  0  0  0  0  0  0  0  0  0  0
    5.8530    2.8720   32.7100 N   0  0  0  0  0  0  0  0  0  0  0  0
    6.3330    4.1150   32.7740 C   0  0  0  0  0  0  0  0  0  0  0  0
    7.6620    4.2560   32.5130 N   0  0  0  0  0  0  0  0  0  0  0  0
    8.0430    3.0220   32.2670 C   0  0  0  0  0  0  0  0  0  0  0  0
    9.3100    2.4630   31.9310 C   0  0  0  0  0  0  0  0  0  0  0  0
   12.7030    1.5050   31.0830 C   0  0  0  0  0  0  0  0  0  0  0  0
   13.0000    1.4750   32.5540 C   0  0  0  0  0  0  0  0  0  0  0  0
   13.6180    2.0840   30.1880 C   0  0  0  0  0  0  0  0  0  0  0  0
   15.9010    0.9750   27.6410 N   0  0  0  0  0  0  0  0  0  0  0  0
   16.8480    0.4230   26.8850 C   0  0  0  0  0  0  0  0  0  0  0  0
   17.3380    0.9270   25.7510 N   0  0  0  0  0  0  0  0  0  0  0  0
   16.8430    2.0990   25.3480 C   0  0  0  0  0  0  0  0  0  0  0  0
   17.3220    2.6170   24.1510 C   0  0  0  0  0  0  0  0  0  0  0  0
  1  2  1  0
  2  3  1  0
  3  4  2  0
  4  5  1  0
  5  6  1  0
  7  6  1  1
  7  8  1  0
  8  9  1  0
  9 10  1  0
 10 11  1  0
 10 12  1  0
 12 13  1  0
 13 14  1  0
 13 15  1  0
  5 16  2  0
 16 17  1  0
 17 18  1  0
 18 19  1  0
 19 20  2  0
 20 21  1  0
 21 22  2  0
 22 23  1  0
 23 24  1  0
 24 25  1  0
 25 26  2  0
 26 27  1  0
 27 28  1  0
 28 29  2  0
 29 30  1  0
 30 31  2  0
 31 32  1  0
 22 33  1  0
 33 34  1  0
 33 35  2  0
 17 36  2  0
 36 37  1  0
 37 38  2  0
 38 39  1  0
 39 40  2  0
 40  3  1  0
 13  7  1  0
 39 16  1  0
 35 19  1  0
 32 24  2  0
 31 27  1  0
M  END
$$$$
