AXVWVFHQMYQWLK-UHFFFAOYSA-N
     RDKit          3D

 44 47  0  0  0  0  0  0  0  0999 V2000
   21.4360   32.3560   12.7490 N   0  0  0  0  0  0  0  0  0  0  0  0
   21.3110   33.6110   13.7790 P   0  0  1  0  0  0  0  0  0  0  0  0
   20.1630   34.5330   13.5220 O   0  0  0  0  0  0  0  0  0  0  0  0
   21.1960   32.8980   15.2190 O   0  0  0  0  0  0  0  0  0  0  0  0
   20.1130   33.2560   16.0620 C   0  0  0  0  0  0  0  0  0  0  0  0
   20.6640   33.8400   17.3560 C   0  0  0  0  0  0  0  0  0  0  0  0
   20.3770   35.3390   17.4700 C   0  0  0  0  0  0  0  0  0  0  0  0
   19.3240   35.6310   18.5110 C   0  0  0  0  0  0  0  0  0  0  0  0
   19.2750   35.1330   19.6280 O   0  0  0  0  0  0  0  0  0  0  0  0
   18.4210   36.5440   17.9720 O   0  0  0  0  0  0  0  0  0  0  0  0
   17.2490   35.9870   17.4560 C   0  0  0  0  0  0  0  0  0  0  0  0
   16.1180   36.0020   18.2560 C   0  0  0  0  0  0  0  0  0  0  0  0
   14.9230   35.4890   17.7470 C   0  0  0  0  0  0  0  0  0  0  0  0
   14.8300   34.9820   16.4560 C   0  0  0  0  0  0  0  0  0  0  0  0
   13.6520   34.5030   16.0530 N   0  0  0  0  0  0  0  0  0  0  0  0
   13.5970   34.0170   14.8100 C   0  0  0  0  0  0  0  0  0  0  0  0
   14.6030   33.9790   13.9320 N   0  0  0  0  0  0  0  0  0  0  0  0
   15.7840   34.4800   14.3350 C   0  0  0  0  0  0  0  0  0  0  0  0
   16.8660   34.4780   13.4250 N   0  0  0  0  0  0  0  0  0  0  0  0
   16.9130   34.1360   12.0620 C   0  0  0  0  0  0  0  0  0  0  0  0
   16.2040   34.9180   11.1390 C   0  0  0  0  0  0  0  0  0  0  0  0
   16.2310   34.6380    9.7660 C   0  0  0  0  0  0  0  0  0  0  0  0
   16.9820   33.5670    9.2790 C   0  0  0  0  0  0  0  0  0  0  0  0
   17.0770   33.2180    7.9580 O   0  0  0  0  0  0  0  0  0  0  0  0
   15.9440   32.6080    7.3470 C   0  0  0  0  0  0  0  0  0  0  0  0
   16.3050   31.1830    7.0120 C   0  0  0  0  0  0  0  0  0  0  0  0
   15.3630   30.1540    7.1840 C   0  0  0  0  0  0  0  0  0  0  0  0
   15.6920   28.8290    6.8840 C   0  0  0  0  0  0  0  0  0  0  0  0
   16.9670   28.5190    6.4170 C   0  0  0  0  0  0  0  0  0  0  0  0
   17.9040   29.5330    6.2610 C   0  0  0  0  0  0  0  0  0  0  0  0
   19.1320   29.2340    5.8170 F   0  0  0  0  0  0  0  0  0  0  0  0
   17.5880   30.8560    6.5550 C   0  0  0  0  0  0  0  0  0  0  0  0
   17.7090   32.7930   10.1940 C   0  0  0  0  0  0  0  0  0  0  0  0
   18.6750   31.4560    9.6680 Cl  0  0  0  0  0  0  0  0  0  0  0  0
   17.6760   33.0770   11.5640 C   0  0  0  0  0  0  0  0  0  0  0  0
   15.9700   34.9980   15.6340 C   0  0  0  0  0  0  0  0  0  0  0  0
   17.1900   35.5080   16.1510 C   0  0  0  0  0  0  0  0  0  0  0  0
   22.7960   34.3130   13.7420 N   0  0  0  0  0  0  0  0  0  0  0  0
   23.2140   35.0700   14.9400 C   0  0  0  0  0  0  0  0  0  0  0  0
   23.4460   36.5650   14.6910 C   0  0  0  0  0  0  0  0  0  0  0  0
   22.9610   36.9940   13.0280 Cl  0  0  0  0  0  0  0  0  0  0  0  0
   23.9130   33.4790   13.2560 C   0  0  0  0  0  0  0  0  0  0  0  0
   24.5180   33.9230   11.9190 C   0  0  0  0  0  0  0  0  0  0  0  0
   25.7600   32.7600   11.3860 Cl  0  0  0  0  0  0  0  0  0  0  0  0
  2  1  1  6
  2  3  2  0
  2  4  1  0
  4  5  1  0
  5  6  1  0
  6  7  1  0
  7  8  1  0
  8  9  2  0
  8 10  1  0
 10 11  1  0
 11 12  2  0
 12 13  1  0
 13 14  2  0
 14 15  1  0
 15 16  2  0
 16 17  1  0
 17 18  2  0
 18 19  1  0
 19 20  1  0
 20 21  2  0
 21 22  1  0
 22 23  2  0
 23 24  1  0
 24 25  1  0
 25 26  1  0
 26 27  2  0
 27 28  1  0
 28 29  2  0
 29 30  1  0
 30 31  1  0
 30 32  2  0
 23 33  1  0
 33 34  1  0
 33 35  2  0
 18 36  1  0
 36 37  2  0
  2 38  1  0
 38 39  1  0
 39 40  1  0
 40 41  1  0
 38 42  1  0
 42 43  1  0
 43 44  1  0
 37 11  1  0
 36 14  1  0
 35 20  1  0
 32 26  1  0
M  END
$$$$
