IRWGMJOHKYTECO-UHFFFAOYSA-N
     RDKit          3D

 38 43  0  0  0  0  0  0  0  0999 V2000
    1.8590  -19.2760   22.4340 N   0  0  0  0  0  0  0  0  0  0  0  0
    2.9680  -19.5020   22.6900 C   0  0  0  0  0  0  0  0  0  0  0  0
    4.3800  -19.7930   22.9670 C   0  0  0  0  0  0  0  0  0  0  0  0
    5.1880  -19.9110   21.6780 C   0  0  0  0  0  0  0  0  0  0  0  0
    5.3980  -21.3260   21.2870 N   0  0  0  0  0  0  0  0  0  0  0  0
    5.8330  -21.7420   20.0650 C   0  0  0  0  0  0  0  0  0  0  0  0
    5.9160  -23.1110   20.1520 C   0  0  0  0  0  0  0  0  0  0  0  0
    5.5480  -23.4430   21.4880 C   0  0  0  0  0  0  0  0  0  0  0  0
    5.4530  -24.8050   22.0460 C   0  0  0  0  0  0  0  0  0  0  0  0
    6.5120  -25.1230   22.8390 N   0  0  0  0  0  0  0  0  0  0  0  0
    6.5470  -26.3570   23.3800 C   0  0  0  0  0  0  0  0  0  0  0  0
    7.7040  -26.6570   24.2220 C   0  0  0  0  0  0  0  0  0  0  0  0
    7.9850  -27.8560   24.9110 C   0  0  0  0  0  0  0  0  0  0  0  0
    9.1360  -27.7610   25.5820 N   0  0  0  0  0  0  0  0  0  0  0  0
    9.5350  -26.5100   25.2540 N   0  0  0  0  0  0  0  0  0  0  0  0
   10.7900  -25.9580   25.7840 C   0  0  2  0  0  0  0  0  0  0  0  0
   12.0660  -26.5550   25.1740 C   0  0  0  0  0  0  0  0  0  0  0  0
   12.4770  -27.8800   25.8070 C   0  0  0  0  0  0  0  0  0  0  0  0
   12.4230  -27.7940   27.3270 C   0  0  0  0  0  0  0  0  0  0  0  0
   11.0750  -27.2630   27.7890 C   0  0  0  0  0  0  0  0  0  0  0  0
   10.8040  -25.9820   27.2250 O   0  0  0  0  0  0  0  0  0  0  0  0
    8.6990  -25.7850   24.4690 N   0  0  0  0  0  0  0  0  0  0  0  0
    5.5530  -27.2940   23.1620 C   0  0  0  0  0  0  0  0  0  0  0  0
    4.4690  -26.9750   22.3730 C   0  0  0  0  0  0  0  0  0  0  0  0
    3.5270  -27.9200   22.2090 N   0  0  0  0  0  0  0  0  0  0  0  0
    2.4450  -27.6310   21.4580 C   0  0  0  0  0  0  0  0  0  0  0  0
    2.2450  -26.4130   20.8500 C   0  0  0  0  0  0  0  0  0  0  0  0
    3.2220  -25.4380   21.0190 C   0  0  0  0  0  0  0  0  0  0  0  0
    4.3840  -25.6960   21.7880 C   0  0  0  0  0  0  0  0  0  0  0  0
    5.2500  -22.3240   22.1740 N   0  0  0  0  0  0  0  0  0  0  0  0
    6.4520  -19.0200   21.4990 C   0  0  0  0  0  0  0  0  0  0  0  0
    5.5590  -17.9820   20.9200 N   0  0  0  0  0  0  0  0  0  0  0  0
    6.1950  -17.3300   19.7510 C   0  0  0  0  0  0  0  0  0  0  0  0
    6.4900  -15.8300   19.9070 C   0  0  0  0  0  0  0  0  0  0  0  0
    7.2260  -15.3850   18.8610 F   0  0  0  0  0  0  0  0  0  0  0  0
    5.3500  -15.1000   19.9350 F   0  0  0  0  0  0  0  0  0  0  0  0
    7.1850  -15.5640   21.0340 F   0  0  0  0  0  0  0  0  0  0  0  0
    4.6380  -19.0710   20.4860 C   0  0  0  0  0  0  0  0  0  0  0  0
  1  2  3  0
  2  3  1  0
  3  4  1  0
  4  5  1  0
  5  6  1  0
  6  7  2  0
  7  8  1  0
  8  9  1  0
  9 10  2  0
 10 11  1  0
 11 12  1  0
 12 13  1  0
 13 14  2  0
 14 15  1  0
 16 15  1  6
 16 17  1  0
 17 18  1  0
 18 19  1  0
 19 20  1  0
 20 21  1  0
 15 22  1  0
 11 23  2  0
 23 24  1  0
 24 25  2  0
 25 26  1  0
 26 27  2  0
 27 28  1  0
 28 29  2  0
  8 30  2  0
  4 31  1  0
 31 32  1  0
 32 33  1  0
 33 34  1  0
 34 35  1  0
 34 36  1  0
 34 37  1  0
 32 38  1  0
 38  4  1  0
 30  5  1  0
 29  9  1  0
 22 12  2  0
 29 24  1  0
 21 16  1  0
M  END
$$$$
