JHULSUDSBNZWAW-AERCQKQUSA-N
     RDKit          3D

 40 46  0  0  0  0  0  0  0  0999 V2000
    9.2410    9.3430   22.5420 C   0  0  0  0  0  0  0  0  0  0  0  0
   10.3180    9.9210   23.0910 C   0  0  0  0  0  0  0  0  0  0  0  0
   11.5890    9.1590   23.2320 C   0  0  0  0  0  0  0  0  0  0  0  0
   12.6610    9.6640   22.9070 O   0  0  0  0  0  0  0  0  0  0  0  0
   11.4980    7.8790   23.7210 N   0  0  0  0  0  0  0  0  0  0  0  0
   11.9090    6.6070   23.1510 C   0  0  2  0  0  0  0  0  0  0  0  0
   10.9090    5.6160   23.7590 C   0  0  0  0  0  0  0  0  0  0  0  0
   10.3790    6.3130   25.0190 C   0  0  0  0  0  0  0  0  0  0  0  0
   11.1800    7.6110   25.1100 C   0  0  1  0  0  0  0  0  0  0  0  0
   12.5110    7.4580   25.8630 C   0  0  0  0  0  0  0  0  0  0  0  0
   13.5560    6.5560   25.1470 C   0  0  1  0  0  0  0  0  0  0  0  0
   13.7780    5.2790   25.8280 N   0  0  0  0  0  0  0  0  0  0  0  0
   12.8760    4.7980   26.7050 N   0  0  0  0  0  0  0  0  0  0  0  0
   13.4210    3.6570   27.1560 C   0  0  0  0  0  0  0  0  0  0  0  0
   12.7330    2.8860   28.1830 C   0  0  0  0  0  0  0  0  0  0  0  0
   11.5240    2.2420   27.8960 C   0  0  0  0  0  0  0  0  0  0  0  0
   10.8730    1.4960   28.8810 C   0  0  0  0  0  0  0  0  0  0  0  0
   11.4250    1.3940   30.1640 C   0  0  0  0  0  0  0  0  0  0  0  0
   10.8260    0.6320   31.1450 O   0  0  0  0  0  0  0  0  0  0  0  0
    9.5670    1.0180   31.5530 C   0  0  0  0  0  0  0  0  0  0  0  0
    8.5080    0.1070   31.6250 C   0  0  0  0  0  0  0  0  0  0  0  0
    7.2270    0.5200   32.0130 C   0  0  0  0  0  0  0  0  0  0  0  0
    7.0620    1.8780   32.3080 C   0  0  0  0  0  0  0  0  0  0  0  0
    8.1030    2.8040   32.2200 C   0  0  0  0  0  0  0  0  0  0  0  0
    9.3780    2.3770   31.8260 C   0  0  0  0  0  0  0  0  0  0  0  0
    7.6700    4.0630   32.5570 N   0  0  0  0  0  0  0  0  0  0  0  0
    6.3950    3.9270   32.8410 C   0  0  0  0  0  0  0  0  0  0  0  0
    5.9850    2.6320   32.7030 N   0  0  0  0  0  0  0  0  0  0  0  0
    4.6460    2.1460   32.9330 C   0  0  0  0  0  0  0  0  0  0  0  0
   12.6520    2.0090   30.4420 C   0  0  0  0  0  0  0  0  0  0  0  0
   13.3870    1.8830   31.9980 Cl  0  0  0  0  0  0  0  0  0  0  0  0
   13.3030    2.7540   29.4560 C   0  0  0  0  0  0  0  0  0  0  0  0
   14.6560    3.3730   26.5030 C   0  0  0  0  0  0  0  0  0  0  0  0
   15.6320    2.3640   26.4850 C   0  0  0  0  0  0  0  0  0  0  0  0
   15.5960    1.1080   27.2980 C   0  0  0  0  0  0  0  0  0  0  0  0
   16.7100    2.5330   25.6680 N   0  0  0  0  0  0  0  0  0  0  0  0
   16.7810    3.6390   24.9020 C   0  0  0  0  0  0  0  0  0  0  0  0
   15.8960    4.6440   24.8250 N   0  0  0  0  0  0  0  0  0  0  0  0
   14.8560    4.4510   25.6550 C   0  0  0  0  0  0  0  0  0  0  0  0
   13.3460    6.3540   23.6220 C   0  0  0  0  0  0  0  0  0  0  0  0
  1  2  2  0
  2  3  1  0
  3  4  2  0
  3  5  1  0
  5  6  1  0
  6  7  1  1
  7  8  1  0
  9  8  1  6
  9 10  1  0
 10 11  1  0
 11 12  1  1
 12 13  1  0
 13 14  2  0
 14 15  1  0
 15 16  2  0
 16 17  1  0
 17 18  2  0
 18 19  1  0
 19 20  1  0
 20 21  2  0
 21 22  1  0
 22 23  2  0
 23 24  1  0
 24 25  2  0
 24 26  1  0
 26 27  2  0
 27 28  1  0
 28 29  1  0
 18 30  1  0
 30 31  1  0
 30 32  2  0
 14 33  1  0
 33 34  2  0
 34 35  1  0
 34 36  1  0
 36 37  2  0
 37 38  1  0
 38 39  2  0
 11 40  1  0
  9  5  1  0
 39 12  1  0
 40  6  1  0
 32 15  1  0
 39 33  1  0
 25 20  1  0
 28 23  1  0
M  END
$$$$
