IRSFLNXJVJKMDT-UHFFFAOYSA-N
     RDKit          3D

 44 48  0  0  0  0  0  0  0  0999 V2000
   45.4090  -44.2250  108.4730 C   0  0  0  0  0  0  0  0  0  0  0  0
   46.3400  -43.0480  108.2290 C   0  0  0  0  0  0  0  0  0  0  0  0
   45.7990  -42.1400  107.2360 N   0  0  0  0  0  0  0  0  0  0  0  0
   46.3820  -41.0970  106.6090 C   0  0  0  0  0  0  0  0  0  0  0  0
   47.7990  -40.6960  106.9140 C   0  0  0  0  0  0  0  0  0  0  0  0
   47.9800  -39.2350  107.3310 C   0  0  0  0  0  0  0  0  0  0  0  0
   47.3370  -38.8560  108.6710 C   0  0  0  0  0  0  0  0  0  0  0  0
   45.8290  -38.8610  108.6590 C   0  0  0  0  0  0  0  0  0  0  0  0
   45.1090  -39.6450  109.5630 C   0  0  0  0  0  0  0  0  0  0  0  0
   43.7100  -39.6410  109.5450 C   0  0  0  0  0  0  0  0  0  0  0  0
   42.9810  -38.8600  108.6300 C   0  0  0  0  0  0  0  0  0  0  0  0
   41.5010  -38.8850  108.6300 C   0  0  0  0  0  0  0  0  0  0  0  0
   40.7310  -38.9330  107.4650 C   0  0  0  0  0  0  0  0  0  0  0  0
   39.3370  -38.9500  107.5540 C   0  0  0  0  0  0  0  0  0  0  0  0
   38.7330  -38.9180  108.8030 C   0  0  0  0  0  0  0  0  0  0  0  0
   37.3160  -38.8670  108.9350 N   0  0  0  0  0  0  0  0  0  0  0  0
   36.4950  -37.5250  108.3110 S   0  0  0  0  0  0  0  0  0  0  0  0
   35.2910  -37.2990  109.0830 O   0  0  0  0  0  0  0  0  0  0  0  0
   37.4920  -36.4880  108.1500 O   0  0  0  0  0  0  0  0  0  0  0  0
   36.0190  -38.0660  106.6850 C   0  0  0  0  0  0  0  0  0  0  0  0
   35.6700  -39.4050  106.4810 C   0  0  0  0  0  0  0  0  0  0  0  0
   35.3000  -39.8290  105.2040 C   0  0  0  0  0  0  0  0  0  0  0  0
   35.2920  -38.9230  104.1420 C   0  0  0  0  0  0  0  0  0  0  0  0
   35.6570  -37.5920  104.3490 C   0  0  0  0  0  0  0  0  0  0  0  0
   36.0300  -37.1590  105.6210 C   0  0  0  0  0  0  0  0  0  0  0  0
   39.5600  -38.8620  109.9160 C   0  0  0  0  0  0  0  0  0  0  0  0
   40.9130  -38.8440  109.8550 N   0  0  0  0  0  0  0  0  0  0  0  0
   43.7240  -38.0830  107.7240 C   0  0  0  0  0  0  0  0  0  0  0  0
   45.1250  -38.0800  107.7390 C   0  0  0  0  0  0  0  0  0  0  0  0
   45.6090  -40.4730  105.7670 N   0  0  0  0  0  0  0  0  0  0  0  0
   44.4220  -41.1650  105.8300 N   0  0  0  0  0  0  0  0  0  0  0  0
   43.2440  -40.7890  105.0890 C   0  0  0  0  0  0  0  0  0  0  0  0
   43.4650  -40.8660  103.5980 C   0  0  0  0  0  0  0  0  0  0  0  0
   43.0050  -39.8490  102.7570 C   0  0  0  0  0  0  0  0  0  0  0  0
   43.1930  -39.9310  101.3740 C   0  0  0  0  0  0  0  0  0  0  0  0
   43.8380  -41.0330  100.7820 C   0  0  0  0  0  0  0  0  0  0  0  0
   44.0290  -41.0870   99.2570 C   0  0  0  0  0  0  0  0  0  0  0  0
   44.8930  -39.8900   98.8040 C   0  0  0  0  0  0  0  0  0  0  0  0
   44.7290  -42.3710   98.7590 C   0  0  0  0  0  0  0  0  0  0  0  0
   42.6550  -41.0150   98.5550 C   0  0  0  0  0  0  0  0  0  0  0  0
   44.2830  -42.0520  101.6390 C   0  0  0  0  0  0  0  0  0  0  0  0
   44.0960  -41.9730  103.0250 C   0  0  0  0  0  0  0  0  0  0  0  0
   44.5180  -42.2090  106.7460 C   0  0  0  0  0  0  0  0  0  0  0  0
   43.6530  -43.0170  107.0490 O   0  0  0  0  0  0  0  0  0  0  0  0
  1  2  1  0
  2  3  1  0
  3  4  1  0
  4  5  1  0
  5  6  1  0
  6  7  1  0
  7  8  1  0
  8  9  2  0
  9 10  1  0
 10 11  2  0
 11 12  1  0
 12 13  2  0
 13 14  1  0
 14 15  2  0
 15 16  1  0
 16 17  1  0
 17 18  2  0
 17 19  2  0
 17 20  1  0
 20 21  2  0
 21 22  1  0
 22 23  2  0
 23 24  1  0
 24 25  2  0
 15 26  1  0
 26 27  2  0
 11 28  1  0
 28 29  2  0
  4 30  2  0
 30 31  1  0
 31 32  1  0
 32 33  1  0
 33 34  2  0
 34 35  1  0
 35 36  2  0
 36 37  1  0
 37 38  1  0
 37 39  1  0
 37 40  1  0
 36 41  1  0
 41 42  2  0
 31 43  1  0
 43 44  2  0
 43  3  1  0
 29  8  1  0
 42 33  1  0
 27 12  1  0
 25 20  1  0
M  END
$$$$
