JZTYZCGIRWVERO-YUZLPWPTSA-N
     RDKit          3D

 18 20  0  0  0  0  0  0  0  0999 V2000
  139.8500  115.1090   40.9360 C   0  0  0  0  0  0  0  0  0  0  0  0
  138.5900  115.4650   40.3470 N   0  0  0  0  0  0  0  0  0  0  0  0
  137.8950  116.5750   40.7400 C   0  0  0  0  0  0  0  0  0  0  0  0
  138.2730  117.3560   41.6040 O   0  0  0  0  0  0  0  0  0  0  0  0
  136.7200  116.6570   40.0120 O   0  0  0  0  0  0  0  0  0  0  0  0
  135.5380  116.4890   40.7460 C   0  0  0  0  0  0  0  0  0  0  0  0
  134.6960  117.6020   40.8760 C   0  0  0  0  0  0  0  0  0  0  0  0
  133.5280  117.5070   41.6380 C   0  0  0  0  0  0  0  0  0  0  0  0
  133.2470  116.3110   42.2750 C   0  0  0  0  0  0  0  0  0  0  0  0
  134.0940  115.2100   42.1380 C   0  0  0  0  0  0  0  0  0  0  0  0
  135.2590  115.2830   41.3890 C   0  0  0  0  0  0  0  0  0  0  0  0
  133.5340  114.0450   42.9130 C   0  0  2  0  0  0  0  0  0  0  0  0
  134.4920  113.5720   44.0040 C   0  0  0  0  0  0  0  0  0  0  0  0
  133.0630  112.8940   42.0170 C   0  0  0  0  0  0  0  0  0  0  0  0
  131.5880  113.1800   41.7980 C   0  0  0  0  0  0  0  0  0  0  0  0
  131.1500  113.7240   43.0830 N   0  0  0  0  0  0  0  0  0  0  0  0
  132.2030  114.6520   43.4900 C   0  0  2  0  0  0  0  0  0  0  0  0
  132.1100  116.0180   43.0090 N   0  0  0  0  0  0  0  0  0  0  0  0
  1  2  1  0
  2  3  1  0
  3  4  2  0
  3  5  1  0
  5  6  1  0
  6  7  2  0
  7  8  1  0
  8  9  2  0
  9 10  1  0
 10 11  2  0
 10 12  1  0
 12 13  1  1
 12 14  1  0
 14 15  1  0
 15 16  1  0
 17 16  1  6
 17 18  1  0
 11  6  1  0
 17 12  1  0
 18  9  1  0
M  END
$$$$
