KUARAUXPEGUHNO-UHFFFAOYSA-N
     RDKit          3D

 33 36  0  0  0  0  0  0  0  0999 V2000
   48.3910  -33.8970  107.9320 C   0  0  0  0  0  0  0  0  0  0  0  0
   48.8390  -34.9660  108.7550 O   0  0  0  0  0  0  0  0  0  0  0  0
   48.3150  -36.2060  108.5030 C   0  0  0  0  0  0  0  0  0  0  0  0
   47.1570  -36.5000  109.2200 C   0  0  0  0  0  0  0  0  0  0  0  0
   46.4950  -37.7250  109.0800 C   0  0  0  0  0  0  0  0  0  0  0  0
   47.0320  -38.6660  108.1880 C   0  0  0  0  0  0  0  0  0  0  0  0
   48.1950  -38.3960  107.4540 C   0  0  0  0  0  0  0  0  0  0  0  0
   48.4820  -39.5430  106.6570 C   0  0  0  0  0  0  0  0  0  0  0  0
   47.5170  -40.4880  106.9180 C   0  0  0  0  0  0  0  0  0  0  0  0
   46.6430  -39.9400  107.8230 N   0  0  0  0  0  0  0  0  0  0  0  0
   45.3870  -40.8250  108.5590 S   0  0  0  0  0  0  0  0  0  0  0  0
   45.5030  -40.5970  109.9870 O   0  0  0  0  0  0  0  0  0  0  0  0
   45.4470  -42.1550  107.9860 O   0  0  0  0  0  0  0  0  0  0  0  0
   43.9100  -40.0200  108.0020 C   0  0  0  0  0  0  0  0  0  0  0  0
   43.1750  -39.2270  108.8870 C   0  0  0  0  0  0  0  0  0  0  0  0
   42.0070  -38.6080  108.4450 C   0  0  0  0  0  0  0  0  0  0  0  0
   41.5820  -38.7670  107.1220 C   0  0  0  0  0  0  0  0  0  0  0  0
   42.3380  -39.5400  106.2270 C   0  0  0  0  0  0  0  0  0  0  0  0
   41.9280  -39.7450  104.8060 C   0  0  0  0  0  0  0  0  0  0  0  0
   40.7420  -39.9480  104.5760 O   0  0  0  0  0  0  0  0  0  0  0  0
   42.9540  -39.7130  103.8820 N   0  0  0  0  0  0  0  0  0  0  0  0
   42.8720  -39.8320  102.4710 C   0  0  0  0  0  0  0  0  0  0  0  0
   42.1530  -38.9210  101.6860 C   0  0  0  0  0  0  0  0  0  0  0  0
   42.0860  -39.0620  100.2960 C   0  0  0  0  0  0  0  0  0  0  0  0
   42.7410  -40.1170   99.6720 C   0  0  0  0  0  0  0  0  0  0  0  0
   42.6560  -40.2850   97.9630 Cl  0  0  0  0  0  0  0  0  0  0  0  0
   43.4660  -41.0350  100.4220 C   0  0  0  0  0  0  0  0  0  0  0  0
   43.5400  -40.9000  101.8200 C   0  0  0  0  0  0  0  0  0  0  0  0
   44.3290  -41.8860  102.6090 C   0  0  0  0  0  0  0  0  0  0  0  0
   43.9640  -42.4170  103.6450 O   0  0  0  0  0  0  0  0  0  0  0  0
   45.5290  -42.1640  102.0720 O   0  0  0  0  0  0  0  0  0  0  0  0
   43.5030  -40.1740  106.6740 C   0  0  0  0  0  0  0  0  0  0  0  0
   48.8410  -37.1500  107.6160 C   0  0  0  0  0  0  0  0  0  0  0  0
  1  2  1  0
  2  3  1  0
  3  4  2  0
  4  5  1  0
  5  6  2  0
  6  7  1  0
  7  8  1  0
  8  9  2  0
  9 10  1  0
 10 11  1  0
 11 12  2  0
 11 13  2  0
 11 14  1  0
 14 15  2  0
 15 16  1  0
 16 17  2  0
 17 18  1  0
 18 19  1  0
 19 20  2  0
 19 21  1  0
 21 22  1  0
 22 23  2  0
 23 24  1  0
 24 25  2  0
 25 26  1  0
 25 27  1  0
 27 28  2  0
 28 29  1  0
 29 30  2  0
 29 31  1  0
 18 32  2  0
  7 33  2  0
 33  3  1  0
 10  6  1  0
 32 14  1  0
 28 22  1  0
M  END
$$$$
