CNYOVNDRGAUJDR-HFTRVMKXSA-N
     RDKit          3D

 27 30  0  0  0  0  0  0  0  0999 V2000
   -9.6450   15.5310   20.4420 N   0  0  0  0  0  0  0  0  0  0  0  0
  -10.5170   14.9100   19.9950 C   0  0  0  0  0  0  0  0  0  0  0  0
  -11.6270   14.0970   19.4620 C   0  0  1  0  0  0  0  0  0  0  0  0
  -11.2110   12.6200   19.4510 C   0  0  0  0  0  0  0  0  0  0  0  0
  -12.3470   11.7120   18.9900 C   0  0  1  0  0  0  0  0  0  0  0  0
  -11.9050   10.3640   19.0870 O   0  0  0  0  0  0  0  0  0  0  0  0
  -13.5860   11.9010   19.8590 C   0  0  0  0  0  0  0  0  0  0  0  0
  -14.0350   13.3560   19.8770 C   0  0  0  0  0  0  0  0  0  0  0  0
  -12.9020   14.3060   20.3050 C   0  0  2  0  0  0  0  0  0  0  0  0
  -13.3750   15.6890   20.2540 N   0  0  0  0  0  0  0  0  0  0  0  0
  -13.0820   16.6820   21.1300 C   0  0  0  0  0  0  0  0  0  0  0  0
  -13.7360   17.8150   20.6750 C   0  0  0  0  0  0  0  0  0  0  0  0
  -13.5860   19.1170   21.2950 C   0  0  0  0  0  0  0  0  0  0  0  0
  -12.3600   19.6980   21.1950 N   0  0  0  0  0  0  0  0  0  0  0  0
  -14.4860   19.6680   21.9220 O   0  0  0  0  0  0  0  0  0  0  0  0
  -14.4700   17.3550   19.5410 C   0  0  0  0  0  0  0  0  0  0  0  0
  -15.3280   18.0490   18.7580 N   0  0  0  0  0  0  0  0  0  0  0  0
  -16.2830   19.0400   19.0610 C   0  0  0  0  0  0  0  0  0  0  0  0
  -16.1630   20.3700   18.6570 C   0  0  0  0  0  0  0  0  0  0  0  0
  -17.1680   21.3050   18.9460 C   0  0  0  0  0  0  0  0  0  0  0  0
  -18.3340   20.9530   19.6430 C   0  0  0  0  0  0  0  0  0  0  0  0
  -19.4470   21.9310   19.9770 C   0  0  0  0  0  0  0  0  0  0  0  0
  -20.8130   21.4320   20.3780 C   0  0  0  0  0  0  0  0  0  0  0  0
  -20.6310   22.1350   19.0640 C   0  0  0  0  0  0  0  0  0  0  0  0
  -18.4440   19.6100   20.0350 C   0  0  0  0  0  0  0  0  0  0  0  0
  -17.4430   18.6710   19.7500 C   0  0  0  0  0  0  0  0  0  0  0  0
  -14.1820   16.0810   19.2560 N   0  0  0  0  0  0  0  0  0  0  0  0
  1  2  3  0
  3  2  1  1
  3  4  1  0
  4  5  1  0
  5  6  1  1
  5  7  1  0
  7  8  1  0
  8  9  1  0
  9 10  1  6
 10 11  1  0
 11 12  2  0
 12 13  1  0
 13 14  1  0
 13 15  2  0
 12 16  1  0
 16 17  1  0
 17 18  1  0
 18 19  2  0
 19 20  1  0
 20 21  2  0
 21 22  1  0
 22 23  1  0
 23 24  1  0
 21 25  1  0
 25 26  2  0
 16 27  2  0
  9  3  1  0
 27 10  1  0
 26 18  1  0
 24 22  1  0
M  END
$$$$
