AINQVQKSQFDZMT-HMMYKYKNSA-N
     RDKit          3D

 74 77  0  0  0  0  0  0  0  0999 V2000
   -5.6648   -0.4101    0.7227 C   0  0  0  0  0  0  0  0  0  0  0  0
   -4.3003    0.0103    0.7364 O   0  0  0  0  0  0  0  0  0  0  0  0
   -3.6642   -0.1367   -0.4613 C   0  0  0  0  0  0  0  0  0  0  0  0
   -4.1806   -0.5841   -1.4776 O   0  0  0  0  0  0  0  0  0  0  0  0
   -2.2261    0.3347   -0.3504 C   0  0  0  0  0  0  0  0  0  0  0  0
   -1.9349    1.3240   -1.4937 C   0  0  0  0  0  0  0  0  0  0  0  0
   -2.8037    2.5625   -1.4331 C   0  0  0  0  0  0  0  0  0  0  0  0
   -2.5139    3.5957   -0.5324 C   0  0  0  0  0  0  0  0  0  0  0  0
   -3.3375    4.7206   -0.4571 C   0  0  0  0  0  0  0  0  0  0  0  0
   -4.4615    4.8224   -1.2777 C   0  0  0  0  0  0  0  0  0  0  0  0
   -4.7581    3.7996   -2.1834 C   0  0  0  0  0  0  0  0  0  0  0  0
   -5.9667    3.8902   -3.0470 C   0  0  0  0  0  0  0  0  0  0  0  0
   -6.3782    5.0122   -3.5481 N   0  0  0  0  0  0  0  0  0  0  0  0
   -6.6884    2.7801   -3.3369 N   0  0  0  0  0  0  0  0  0  0  0  0
   -3.9301    2.6747   -2.2615 C   0  0  0  0  0  0  0  0  0  0  0  0
   -1.3129   -0.9077   -0.3813 C   0  0  0  0  0  0  0  0  0  0  0  0
   -1.6259   -1.8608    0.7506 C   0  0  0  0  0  0  0  0  0  0  0  0
   -1.9357   -3.1546    0.5631 C   0  0  0  0  0  0  0  0  0  0  0  0
   -2.2677   -4.0857    1.6487 C   0  0  0  0  0  0  0  0  0  0  0  0
   -1.8352   -5.4147    1.5571 C   0  0  0  0  0  0  0  0  0  0  0  0
   -2.1588   -6.3383    2.5540 C   0  0  0  0  0  0  0  0  0  0  0  0
   -2.9282   -5.9446    3.6467 C   0  0  0  0  0  0  0  0  0  0  0  0
   -3.3781   -4.6292    3.7410 C   0  0  0  0  0  0  0  0  0  0  0  0
   -3.0543   -3.7052    2.7441 C   0  0  0  0  0  0  0  0  0  0  0  0
    0.0932   -0.5656   -0.2074 N   0  0  0  0  0  0  0  0  0  0  0  0
    0.9403   -0.3925   -1.2814 C   0  0  0  0  0  0  0  0  0  0  0  0
    0.5864   -0.5198   -2.4474 O   0  0  0  0  0  0  0  0  0  0  0  0
    2.3505   -0.0447   -0.9609 C   0  0  0  0  0  0  0  0  0  0  0  0
    3.3557   -0.4739   -1.8332 C   0  0  0  0  0  0  0  0  0  0  0  0
    4.6925   -0.1612   -1.5712 C   0  0  0  0  0  0  0  0  0  0  0  0
    5.0461    0.5963   -0.4441 C   0  0  0  0  0  0  0  0  0  0  0  0
    6.4524    0.9399   -0.1807 C   0  0  0  0  0  0  0  0  0  0  0  0
    6.8980    2.2475   -0.4507 C   0  0  0  0  0  0  0  0  0  0  0  0
    8.2237    2.6162   -0.2262 C   0  0  0  0  0  0  0  0  0  0  0  0
    9.1241    1.6820    0.2739 C   0  0  0  0  0  0  0  0  0  0  0  0
    8.7029    0.3790    0.5510 C   0  0  0  0  0  0  0  0  0  0  0  0
    7.3736   -0.0025    0.3286 C   0  0  0  0  0  0  0  0  0  0  0  0
    6.8764   -1.2570    0.5815 O   0  0  0  0  0  0  0  0  0  0  0  0
    7.7790   -2.2367    1.0765 C   0  0  0  0  0  0  0  0  0  0  0  0
    4.0264    1.0377    0.4141 C   0  0  0  0  0  0  0  0  0  0  0  0
    2.6870    0.7229    0.1603 C   0  0  0  0  0  0  0  0  0  0  0  0
   -6.0736   -0.2673    1.7274 H   0  0  0  0  0  0  0  0  0  0  0  0
   -5.7370   -1.4724    0.4679 H   0  0  0  0  0  0  0  0  0  0  0  0
   -6.2453    0.1987    0.0221 H   0  0  0  0  0  0  0  0  0  0  0  0
   -2.0971    0.8614    0.6056 H   0  0  0  0  0  0  0  0  0  0  0  0
   -2.0598    0.8351   -2.4685 H   0  0  0  0  0  0  0  0  0  0  0  0
   -0.8917    1.6582   -1.4563 H   0  0  0  0  0  0  0  0  0  0  0  0
   -1.6437    3.5307    0.1174 H   0  0  0  0  0  0  0  0  0  0  0  0
   -3.1079    5.5153    0.2483 H   0  0  0  0  0  0  0  0  0  0  0  0
   -5.1121    5.6880   -1.1862 H   0  0  0  0  0  0  0  0  0  0  0  0
   -5.7419    5.7769   -3.3083 H   0  0  0  0  0  0  0  0  0  0  0  0
   -6.4915    1.8673   -2.9538 H   0  0  0  0  0  0  0  0  0  0  0  0
   -7.5020    2.8993   -3.9263 H   0  0  0  0  0  0  0  0  0  0  0  0
   -4.1540    1.8847   -2.9757 H   0  0  0  0  0  0  0  0  0  0  0  0
   -1.4318   -1.4222   -1.3438 H   0  0  0  0  0  0  0  0  0  0  0  0
   -1.6055   -1.4484    1.7572 H   0  0  0  0  0  0  0  0  0  0  0  0
   -1.9376   -3.5779   -0.4401 H   0  0  0  0  0  0  0  0  0  0  0  0
   -1.2357   -5.7417    0.7106 H   0  0  0  0  0  0  0  0  0  0  0  0
   -1.8123   -7.3657    2.4742 H   0  0  0  0  0  0  0  0  0  0  0  0
   -3.1830   -6.6643    4.4201 H   0  0  0  0  0  0  0  0  0  0  0  0
   -3.9880   -4.3231    4.5868 H   0  0  0  0  0  0  0  0  0  0  0  0
   -3.4353   -2.6903    2.8269 H   0  0  0  0  0  0  0  0  0  0  0  0
    0.4774   -0.5594    0.7275 H   0  0  0  0  0  0  0  0  0  0  0  0
    3.1027   -1.0562   -2.7170 H   0  0  0  0  0  0  0  0  0  0  0  0
    5.4645   -0.5101   -2.2543 H   0  0  0  0  0  0  0  0  0  0  0  0
    6.2043    2.9853   -0.8496 H   0  0  0  0  0  0  0  0  0  0  0  0
    8.5510    3.6295   -0.4441 H   0  0  0  0  0  0  0  0  0  0  0  0
   10.1587    1.9662    0.4492 H   0  0  0  0  0  0  0  0  0  0  0  0
    9.4394   -0.3152    0.9414 H   0  0  0  0  0  0  0  0  0  0  0  0
    8.1850   -1.9444    2.0506 H   0  0  0  0  0  0  0  0  0  0  0  0
    8.5795   -2.4353    0.3562 H   0  0  0  0  0  0  0  0  0  0  0  0
    7.2191   -3.1661    1.2167 H   0  0  0  0  0  0  0  0  0  0  0  0
    4.2781    1.6338    1.2893 H   0  0  0  0  0  0  0  0  0  0  0  0
    1.9251    1.1072    0.8310 H   0  0  0  0  0  0  0  0  0  0  0  0
  1  2  1  0
  2  3  1  0
  3  4  2  0
  3  5  1  0
  5  6  1  0
  6  7  1  0
  7  8  2  0
  8  9  1  0
  9 10  2  0
 10 11  1  0
 11 12  1  0
 12 13  2  3
 12 14  1  0
 11 15  2  0
  5 16  1  0
 16 17  1  0
 17 18  2  0
 18 19  1  0
 19 20  2  0
 20 21  1  0
 21 22  2  0
 22 23  1  0
 23 24  2  0
 16 25  1  0
 25 26  1  0
 26 27  2  0
 26 28  1  0
 28 29  2  0
 29 30  1  0
 30 31  2  0
 31 32  1  0
 32 33  2  0
 33 34  1  0
 34 35  2  0
 35 36  1  0
 36 37  2  0
 37 38  1  0
 38 39  1  0
 31 40  1  0
 40 41  2  0
 15  7  1  0
 24 19  1  0
 41 28  1  0
 37 32  1  0
  1 42  1  0
  1 43  1  0
  1 44  1  0
  5 45  1  0
  6 46  1  0
  6 47  1  0
  8 48  1  0
  9 49  1  0
 10 50  1  0
 13 51  1  0
 14 52  1  0
 14 53  1  0
 15 54  1  0
 16 55  1  0
 17 56  1  0
 18 57  1  0
 20 58  1  0
 21 59  1  0
 22 60  1  0
 23 61  1  0
 24 62  1  0
 25 63  1  0
 29 64  1  0
 30 65  1  0
 33 66  1  0
 34 67  1  0
 35 68  1  0
 36 69  1  0
 39 70  1  0
 39 71  1  0
 39 72  1  0
 40 73  1  0
 41 74  1  0
M  END
$$$$
