BGRNRDBRZYUNFJ-UHFFFAOYSA-N
     RDKit          3D

 56 59  0  0  0  0  0  0  0  0999 V2000
   -6.3816    0.0934    2.3897 C   0  0  0  0  0  0  0  0  0  0  0  0
   -6.0311    0.2485    0.8925 C   0  0  0  0  0  0  0  0  0  0  0  0
   -6.6772   -0.9395    0.1477 C   0  0  0  0  0  0  0  0  0  0  0  0
   -6.6765    1.5643    0.4068 C   0  0  0  0  0  0  0  0  0  0  0  0
   -4.5191    0.2773    0.6069 C   0  0  0  0  0  0  0  0  0  0  0  0
   -4.0523    0.4117   -0.7149 C   0  0  0  0  0  0  0  0  0  0  0  0
   -2.6855    0.4443   -1.0118 C   0  0  0  0  0  0  0  0  0  0  0  0
   -1.7447    0.3438    0.0143 C   0  0  0  0  0  0  0  0  0  0  0  0
   -0.3490    0.3649   -0.2848 N   0  0  0  0  0  0  0  0  0  0  0  0
    0.6300    1.0661    0.4164 C   0  0  0  0  0  0  0  0  0  0  0  0
    0.3814    2.0196    1.4611 C   0  0  0  0  0  0  0  0  0  0  0  0
   -0.5773    2.7628    1.5999 O   0  0  0  0  0  0  0  0  0  0  0  0
    1.3699    2.0280    2.3797 O   0  0  0  0  0  0  0  0  0  0  0  0
    1.8471    0.7374   -0.1541 C   0  0  0  0  0  0  0  0  0  0  0  0
    3.0120    1.2888    0.2641 O   0  0  0  0  0  0  0  0  0  0  0  0
    4.1600    0.5435    0.3688 C   0  0  0  0  0  0  0  0  0  0  0  0
    4.1773   -0.7590    0.8639 C   0  0  0  0  0  0  0  0  0  0  0  0
    5.3906   -1.4434    0.9661 C   0  0  0  0  0  0  0  0  0  0  0  0
    6.5929   -0.8312    0.5943 C   0  0  0  0  0  0  0  0  0  0  0  0
    7.6970   -1.6194    0.7486 O   0  0  0  0  0  0  0  0  0  0  0  0
    8.9567   -1.0666    0.4095 C   0  0  0  0  0  0  0  0  0  0  0  0
    9.0047   -0.7256   -0.8962 F   0  0  0  0  0  0  0  0  0  0  0  0
    9.2368    0.0140    1.1690 F   0  0  0  0  0  0  0  0  0  0  0  0
    9.9121   -1.9958    0.6348 F   0  0  0  0  0  0  0  0  0  0  0  0
    6.5691    0.4821    0.1213 C   0  0  0  0  0  0  0  0  0  0  0  0
    5.3545    1.1689    0.0160 C   0  0  0  0  0  0  0  0  0  0  0  0
    1.6304   -0.1194   -1.2644 C   0  0  0  0  0  0  0  0  0  0  0  0
    2.4705   -0.7095   -2.2357 C   0  0  0  0  0  0  0  0  0  0  0  0
    1.9347   -1.5705   -3.1958 C   0  0  0  0  0  0  0  0  0  0  0  0
    0.5774   -1.8564   -3.1979 C   0  0  0  0  0  0  0  0  0  0  0  0
   -0.2781   -1.2702   -2.2609 C   0  0  0  0  0  0  0  0  0  0  0  0
    0.2551   -0.3658   -1.3168 C   0  0  0  0  0  0  0  0  0  0  0  0
   -2.1824    0.2139    1.3339 C   0  0  0  0  0  0  0  0  0  0  0  0
   -3.5532    0.1800    1.6218 C   0  0  0  0  0  0  0  0  0  0  0  0
   -5.9870    0.9251    2.9847 H   0  0  0  0  0  0  0  0  0  0  0  0
   -5.9841   -0.8412    2.8024 H   0  0  0  0  0  0  0  0  0  0  0  0
   -7.4676    0.0762    2.5415 H   0  0  0  0  0  0  0  0  0  0  0  0
   -6.5734   -0.8532   -0.9395 H   0  0  0  0  0  0  0  0  0  0  0  0
   -7.7503   -1.0045    0.3628 H   0  0  0  0  0  0  0  0  0  0  0  0
   -6.2187   -1.8894    0.4476 H   0  0  0  0  0  0  0  0  0  0  0  0
   -7.7494    1.5843    0.6306 H   0  0  0  0  0  0  0  0  0  0  0  0
   -6.2177    2.4323    0.8948 H   0  0  0  0  0  0  0  0  0  0  0  0
   -6.5727    1.7023   -0.6748 H   0  0  0  0  0  0  0  0  0  0  0  0
   -4.7547    0.5055   -1.5406 H   0  0  0  0  0  0  0  0  0  0  0  0
   -2.3823    0.5923   -2.0454 H   0  0  0  0  0  0  0  0  0  0  0  0
    1.0913    2.7270    3.0045 H   0  0  0  0  0  0  0  0  0  0  0  0
    3.2590   -1.2478    1.1763 H   0  0  0  0  0  0  0  0  0  0  0  0
    5.3953   -2.4628    1.3457 H   0  0  0  0  0  0  0  0  0  0  0  0
    7.4712    1.0105   -0.1738 H   0  0  0  0  0  0  0  0  0  0  0  0
    5.3410    2.1938   -0.3467 H   0  0  0  0  0  0  0  0  0  0  0  0
    3.5384   -0.5083   -2.2355 H   0  0  0  0  0  0  0  0  0  0  0  0
    2.5888   -2.0287   -3.9334 H   0  0  0  0  0  0  0  0  0  0  0  0
    0.1725   -2.5465   -3.9347 H   0  0  0  0  0  0  0  0  0  0  0  0
   -1.3324   -1.5298   -2.2702 H   0  0  0  0  0  0  0  0  0  0  0  0
   -1.4817    0.1074    2.1579 H   0  0  0  0  0  0  0  0  0  0  0  0
   -3.8378    0.0745    2.6652 H   0  0  0  0  0  0  0  0  0  0  0  0
  1  2  1  0
  2  3  1  0
  2  4  1  0
  2  5  1  0
  5  6  2  0
  6  7  1  0
  7  8  2  0
  8  9  1  0
  9 10  1  0
 10 11  1  0
 11 12  2  0
 11 13  1  0
 10 14  2  0
 14 15  1  0
 15 16  1  0
 16 17  2  0
 17 18  1  0
 18 19  2  0
 19 20  1  0
 20 21  1  0
 21 22  1  0
 21 23  1  0
 21 24  1  0
 19 25  1  0
 25 26  2  0
 14 27  1  0
 27 28  2  0
 28 29  1  0
 29 30  2  0
 30 31  1  0
 31 32  2  0
  8 33  1  0
 33 34  2  0
 34  5  1  0
 32  9  1  0
 26 16  1  0
 32 27  1  0
  1 35  1  0
  1 36  1  0
  1 37  1  0
  3 38  1  0
  3 39  1  0
  3 40  1  0
  4 41  1  0
  4 42  1  0
  4 43  1  0
  6 44  1  0
  7 45  1  0
 13 46  1  0
 17 47  1  0
 18 48  1  0
 25 49  1  0
 26 50  1  0
 28 51  1  0
 29 52  1  0
 30 53  1  0
 31 54  1  0
 33 55  1  0
 34 56  1  0
M  END
$$$$
