BOIFMTPHEQFLJE-NRFANRHFSA-N
     RDKit          3D

 74 77  0  0  0  0  0  0  0  0999 V2000
   -1.4990   -4.9011   -0.8184 C   0  0  0  0  0  0  0  0  0  0  0  0
   -2.7278   -4.7761    0.0712 C   0  0  0  0  0  0  0  0  0  0  0  0
   -2.5686   -3.7416    1.1897 C   0  0  0  0  0  0  0  0  0  0  0  0
   -2.5264   -2.3121    0.6939 C   0  0  0  0  0  0  0  0  0  0  0  0
   -3.7389   -1.6715    0.3695 C   0  0  0  0  0  0  0  0  0  0  0  0
   -3.7813   -0.3478   -0.0990 C   0  0  0  0  0  0  0  0  0  0  0  0
   -5.0932    0.2563   -0.4148 C   0  0  0  0  0  0  0  0  0  0  0  0
   -6.2274   -0.4216   -0.4395 N   0  0  0  0  0  0  0  0  0  0  0  0
   -7.2922    0.4011   -0.7738 C   0  0  0  0  0  0  0  0  0  0  0  0
   -8.6358   -0.2183   -0.9137 C   0  0  0  0  0  0  0  0  0  0  0  0
   -6.9572    1.7317   -0.9389 C   0  0  0  0  0  0  0  0  0  0  0  0
   -7.7868    2.8692   -1.2685 C   0  0  0  0  0  0  0  0  0  0  0  0
   -7.6190    3.5038   -2.3095 O   0  0  0  0  0  0  0  0  0  0  0  0
   -8.8000    3.2165   -0.3665 N   0  0  0  0  0  0  0  0  0  0  0  0
   -8.9216    2.7034    0.9915 C   0  0  0  0  0  0  0  0  0  0  0  0
   -9.7573    4.2407   -0.7487 C   0  0  0  0  0  0  0  0  0  0  0  0
   -5.2695    1.9351   -0.7657 S   0  0  0  0  0  0  0  0  0  0  0  0
   -2.5614    0.3256   -0.2438 C   0  0  0  0  0  0  0  0  0  0  0  0
   -1.3459   -0.2992    0.0681 C   0  0  0  0  0  0  0  0  0  0  0  0
   -1.3179   -1.6165    0.5303 C   0  0  0  0  0  0  0  0  0  0  0  0
   -0.1776   -2.3034    0.8512 O   0  0  0  0  0  0  0  0  0  0  0  0
    1.0729   -1.7086    0.5011 C   0  0  0  0  0  0  0  0  0  0  0  0
    2.1703   -2.7239    0.8102 C   0  0  0  0  0  0  0  0  0  0  0  0
    3.5452   -2.2287    0.3784 C   0  0  0  0  0  0  0  0  0  0  0  0
    3.8460   -1.0311    1.0925 O   0  0  0  0  0  0  0  0  0  0  0  0
    5.0296   -0.4096    0.7988 C   0  0  0  0  0  0  0  0  0  0  0  0
    5.2520    0.7798    1.5133 C   0  0  0  0  0  0  0  0  0  0  0  0
    6.4156    1.5334    1.3286 C   0  0  0  0  0  0  0  0  0  0  0  0
    7.3491    1.0919    0.4067 C   0  0  0  0  0  0  0  0  0  0  0  0
    7.1332   -0.0990   -0.2993 C   0  0  0  0  0  0  0  0  0  0  0  0
    5.9870   -0.8609   -0.1111 C   0  0  0  0  0  0  0  0  0  0  0  0
    8.2955   -0.4147   -1.1879 C   0  0  0  0  0  0  0  0  0  0  0  0
    8.9614    0.9616   -1.2927 C   0  0  0  0  0  0  0  0  0  0  0  0
    8.6876    1.6879    0.0457 C   0  0  1  0  0  0  0  0  0  0  0  0
    8.7151    3.2043   -0.1408 C   0  0  0  0  0  0  0  0  0  0  0  0
    8.8498    3.9446    1.1615 C   0  0  0  0  0  0  0  0  0  0  0  0
    9.1889    3.4976    2.2428 O   0  0  0  0  0  0  0  0  0  0  0  0
    8.5789    5.2580    1.0224 O   0  0  0  0  0  0  0  0  0  0  0  0
   -1.3198   -3.9836   -1.3865 H   0  0  0  0  0  0  0  0  0  0  0  0
   -1.6379   -5.7145   -1.5378 H   0  0  0  0  0  0  0  0  0  0  0  0
   -0.6056   -5.1233   -0.2263 H   0  0  0  0  0  0  0  0  0  0  0  0
   -3.6011   -4.5418   -0.5491 H   0  0  0  0  0  0  0  0  0  0  0  0
   -2.9190   -5.7534    0.5307 H   0  0  0  0  0  0  0  0  0  0  0  0
   -1.6850   -3.9739    1.7961 H   0  0  0  0  0  0  0  0  0  0  0  0
   -3.4175   -3.8369    1.8801 H   0  0  0  0  0  0  0  0  0  0  0  0
   -4.6731   -2.2215    0.4879 H   0  0  0  0  0  0  0  0  0  0  0  0
   -9.1164   -0.3036    0.0653 H   0  0  0  0  0  0  0  0  0  0  0  0
   -9.2837    0.3707   -1.5698 H   0  0  0  0  0  0  0  0  0  0  0  0
   -8.5509   -1.2219   -1.3426 H   0  0  0  0  0  0  0  0  0  0  0  0
   -9.0171    3.5493    1.6798 H   0  0  0  0  0  0  0  0  0  0  0  0
   -9.8240    2.0882    1.0506 H   0  0  0  0  0  0  0  0  0  0  0  0
   -8.0571    2.1146    1.3011 H   0  0  0  0  0  0  0  0  0  0  0  0
   -9.5501    5.1454   -0.1696 H   0  0  0  0  0  0  0  0  0  0  0  0
  -10.7670    3.8851   -0.5222 H   0  0  0  0  0  0  0  0  0  0  0  0
   -9.7026    4.4815   -1.8136 H   0  0  0  0  0  0  0  0  0  0  0  0
   -2.5212    1.3493   -0.6079 H   0  0  0  0  0  0  0  0  0  0  0  0
   -0.4368    0.2796   -0.0598 H   0  0  0  0  0  0  0  0  0  0  0  0
    1.2279   -0.7989    1.0927 H   0  0  0  0  0  0  0  0  0  0  0  0
    1.0900   -1.4700   -0.5693 H   0  0  0  0  0  0  0  0  0  0  0  0
    1.9446   -3.6757    0.3146 H   0  0  0  0  0  0  0  0  0  0  0  0
    2.1653   -2.9260    1.8886 H   0  0  0  0  0  0  0  0  0  0  0  0
    4.2884   -2.9997    0.6138 H   0  0  0  0  0  0  0  0  0  0  0  0
    3.5395   -2.0391   -0.7020 H   0  0  0  0  0  0  0  0  0  0  0  0
    4.5090    1.1152    2.2334 H   0  0  0  0  0  0  0  0  0  0  0  0
    6.5712    2.4326    1.9152 H   0  0  0  0  0  0  0  0  0  0  0  0
    5.8698   -1.7818   -0.6691 H   0  0  0  0  0  0  0  0  0  0  0  0
    7.9859   -0.7842   -2.1695 H   0  0  0  0  0  0  0  0  0  0  0  0
    8.9556   -1.1409   -0.7027 H   0  0  0  0  0  0  0  0  0  0  0  0
    8.5035    1.5160   -2.1250 H   0  0  0  0  0  0  0  0  0  0  0  0
   10.0323    0.8848   -1.5089 H   0  0  0  0  0  0  0  0  0  0  0  0
    9.4247    1.3606    0.7903 H   0  0  0  0  0  0  0  0  0  0  0  0
    7.8051    3.5458   -0.6483 H   0  0  0  0  0  0  0  0  0  0  0  0
    9.5819    3.4877   -0.7497 H   0  0  0  0  0  0  0  0  0  0  0  0
    8.7181    5.6275    1.9197 H   0  0  0  0  0  0  0  0  0  0  0  0
  1  2  1  0
  2  3  1  0
  3  4  1  0
  4  5  2  0
  5  6  1  0
  6  7  1  0
  7  8  2  0
  8  9  1  0
  9 10  1  0
  9 11  2  0
 11 12  1  0
 12 13  2  0
 12 14  1  0
 14 15  1  0
 14 16  1  0
 11 17  1  0
  6 18  2  0
 18 19  1  0
 19 20  2  0
 20 21  1  0
 21 22  1  0
 22 23  1  0
 23 24  1  0
 24 25  1  0
 25 26  1  0
 26 27  2  0
 27 28  1  0
 28 29  2  0
 29 30  1  0
 30 31  2  0
 30 32  1  0
 32 33  1  0
 33 34  1  0
 34 35  1  0
 35 36  1  0
 36 37  2  0
 36 38  1  0
 20  4  1  0
 31 26  1  0
 17  7  1  0
 34 29  1  0
  1 39  1  0
  1 40  1  0
  1 41  1  0
  2 42  1  0
  2 43  1  0
  3 44  1  0
  3 45  1  0
  5 46  1  0
 10 47  1  0
 10 48  1  0
 10 49  1  0
 15 50  1  0
 15 51  1  0
 15 52  1  0
 16 53  1  0
 16 54  1  0
 16 55  1  0
 18 56  1  0
 19 57  1  0
 22 58  1  0
 22 59  1  0
 23 60  1  0
 23 61  1  0
 24 62  1  0
 24 63  1  0
 27 64  1  0
 28 65  1  0
 31 66  1  0
 32 67  1  0
 32 68  1  0
 33 69  1  0
 33 70  1  0
 34 71  1  1
 35 72  1  0
 35 73  1  0
 38 74  1  0
M  END
$$$$
