CDMGBJANTYXAIV-UHFFFAOYSA-N
     RDKit          3D

 43 46  0  0  0  0  0  0  0  0999 V2000
    7.0216   -1.0552    1.4184 C   0  0  0  0  0  0  0  0  0  0  0  0
    6.7037   -1.0626   -0.3648 S   0  0  0  0  0  0  0  0  0  0  0  0
    7.3972    0.3086   -0.9932 O   0  0  0  0  0  0  0  0  0  0  0  0
    4.9249   -0.7593   -0.2784 C   0  0  0  0  0  0  0  0  0  0  0  0
    4.3959    0.4918   -0.6057 C   0  0  0  0  0  0  0  0  0  0  0  0
    3.0155    0.7193   -0.5422 C   0  0  0  0  0  0  0  0  0  0  0  0
    2.1392   -0.3042   -0.1564 C   0  0  0  0  0  0  0  0  0  0  0  0
    0.6866   -0.1162   -0.0764 C   0  0  0  0  0  0  0  0  0  0  0  0
   -0.1705   -0.9546    0.4742 N   0  0  0  0  0  0  0  0  0  0  0  0
   -1.4225   -0.4003    0.3204 C   0  0  0  0  0  0  0  0  0  0  0  0
   -2.6166   -1.0659    0.8162 C   0  0  0  0  0  0  0  0  0  0  0  0
   -3.8276   -1.0433    0.1082 C   0  0  0  0  0  0  0  0  0  0  0  0
   -4.9545   -1.6975    0.6136 C   0  0  0  0  0  0  0  0  0  0  0  0
   -4.8677   -2.3827    1.8195 C   0  0  0  0  0  0  0  0  0  0  0  0
   -5.9488   -3.0094    2.3015 F   0  0  0  0  0  0  0  0  0  0  0  0
   -3.6745   -2.4321    2.5287 C   0  0  0  0  0  0  0  0  0  0  0  0
   -2.5484   -1.7777    2.0245 C   0  0  0  0  0  0  0  0  0  0  0  0
   -1.3392    0.8237   -0.3241 C   0  0  0  0  0  0  0  0  0  0  0  0
   -2.3088    1.8566   -0.6675 C   0  0  0  0  0  0  0  0  0  0  0  0
   -2.3942    2.3479   -1.9712 C   0  0  0  0  0  0  0  0  0  0  0  0
   -3.3308    3.3314   -2.2449 C   0  0  0  0  0  0  0  0  0  0  0  0
   -4.1657    3.8499   -1.3208 N   0  0  0  0  0  0  0  0  0  0  0  0
   -4.0657    3.3598   -0.0672 C   0  0  0  0  0  0  0  0  0  0  0  0
   -3.1645    2.3765    0.3043 C   0  0  0  0  0  0  0  0  0  0  0  0
    0.0074    0.9674   -0.5795 N   0  0  0  0  0  0  0  0  0  0  0  0
    2.6824   -1.5573    0.1671 C   0  0  0  0  0  0  0  0  0  0  0  0
    4.0606   -1.7876    0.1029 C   0  0  0  0  0  0  0  0  0  0  0  0
    6.5326   -1.9137    1.8847 H   0  0  0  0  0  0  0  0  0  0  0  0
    6.6548   -0.1257    1.8609 H   0  0  0  0  0  0  0  0  0  0  0  0
    8.1003   -1.1284    1.5765 H   0  0  0  0  0  0  0  0  0  0  0  0
    5.0557    1.3024   -0.9116 H   0  0  0  0  0  0  0  0  0  0  0  0
    2.6556    1.7129   -0.7922 H   0  0  0  0  0  0  0  0  0  0  0  0
   -3.9049   -0.5311   -0.8474 H   0  0  0  0  0  0  0  0  0  0  0  0
   -5.8940   -1.6815    0.0704 H   0  0  0  0  0  0  0  0  0  0  0  0
   -3.6243   -2.9803    3.4637 H   0  0  0  0  0  0  0  0  0  0  0  0
   -1.6107   -1.8233    2.5756 H   0  0  0  0  0  0  0  0  0  0  0  0
   -1.7655    1.9663   -2.7681 H   0  0  0  0  0  0  0  0  0  0  0  0
   -3.4397    3.7384   -3.2463 H   0  0  0  0  0  0  0  0  0  0  0  0
   -4.7512    3.7923    0.6562 H   0  0  0  0  0  0  0  0  0  0  0  0
   -3.1344    2.0299    1.3323 H   0  0  0  0  0  0  0  0  0  0  0  0
    0.4285    1.7607   -1.0377 H   0  0  0  0  0  0  0  0  0  0  0  0
    2.0215   -2.3700    0.4682 H   0  0  0  0  0  0  0  0  0  0  0  0
    4.4407   -2.7759    0.3493 H   0  0  0  0  0  0  0  0  0  0  0  0
  1  2  1  0
  2  3  1  0
  2  4  1  0
  4  5  2  0
  5  6  1  0
  6  7  2  0
  7  8  1  0
  8  9  2  0
  9 10  1  0
 10 11  1  0
 11 12  2  0
 12 13  1  0
 13 14  2  0
 14 15  1  0
 14 16  1  0
 16 17  2  0
 10 18  2  0
 18 19  1  0
 19 20  2  0
 20 21  1  0
 21 22  2  0
 22 23  1  0
 23 24  2  0
 18 25  1  0
  7 26  1  0
 26 27  2  0
 27  4  1  0
 25  8  1  0
 17 11  1  0
 24 19  1  0
  1 28  1  0
  1 29  1  0
  1 30  1  0
  5 31  1  0
  6 32  1  0
 12 33  1  0
 13 34  1  0
 16 35  1  0
 17 36  1  0
 20 37  1  0
 21 38  1  0
 23 39  1  0
 24 40  1  0
 25 41  1  0
 26 42  1  0
 27 43  1  0
M  CHG  2   2   1   3  -1
M  END
$$$$
