CSYVGFFWWUUSDU-UHFFFAOYSA-N
     RDKit          3D

 57 60  0  0  0  0  0  0  0  0999 V2000
    6.9830    0.4011   -2.8156 C   0  0  0  0  0  0  0  0  0  0  0  0
    7.1557    0.3533   -1.4069 O   0  0  0  0  0  0  0  0  0  0  0  0
    6.0382    0.1605   -0.6301 C   0  0  0  0  0  0  0  0  0  0  0  0
    4.7376    0.0277   -1.1434 C   0  0  0  0  0  0  0  0  0  0  0  0
    3.6874   -0.1661   -0.2593 C   0  0  0  0  0  0  0  0  0  0  0  0
    3.9342   -0.2169    1.1040 C   0  0  0  0  0  0  0  0  0  0  0  0
    5.1970   -0.0851    1.6517 C   0  0  0  0  0  0  0  0  0  0  0  0
    6.2674    0.1053    0.7735 C   0  0  0  0  0  0  0  0  0  0  0  0
    7.5748    0.2485    1.1720 O   0  0  0  0  0  0  0  0  0  0  0  0
    7.8443    0.2127    2.5668 C   0  0  0  0  0  0  0  0  0  0  0  0
    2.6699   -0.4343    1.7930 C   0  0  0  0  0  0  0  0  0  0  0  0
    2.5568   -0.4603    3.0057 O   0  0  0  0  0  0  0  0  0  0  0  0
    1.5706   -0.6571    0.7679 C   0  0  0  0  0  0  0  0  0  0  0  0
    0.3238    0.1668    1.0998 C   0  0  0  0  0  0  0  0  0  0  0  0
   -0.8337    0.0239    0.0924 C   0  0  0  0  0  0  0  0  0  0  0  0
   -1.3535   -1.4159   -0.0103 C   0  0  0  0  0  0  0  0  0  0  0  0
   -2.5875   -1.5075   -0.9116 C   0  0  0  0  0  0  0  0  0  0  0  0
   -3.6582   -0.6138   -0.4509 N   0  0  0  0  0  0  0  0  0  0  0  0
   -4.8532   -0.7791   -1.2982 C   0  0  0  0  0  0  0  0  0  0  0  0
   -6.0921   -0.1235   -0.7242 C   0  0  0  0  0  0  0  0  0  0  0  0
   -6.5464   -0.4595    0.5612 C   0  0  0  0  0  0  0  0  0  0  0  0
   -7.6948    0.1331    1.0893 C   0  0  0  0  0  0  0  0  0  0  0  0
   -8.4059    1.0663    0.3362 C   0  0  0  0  0  0  0  0  0  0  0  0
   -7.9643    1.4021   -0.9419 C   0  0  0  0  0  0  0  0  0  0  0  0
   -8.8420    2.5537   -1.8730 Cl  0  0  0  0  0  0  0  0  0  0  0  0
   -6.8173    0.8131   -1.4753 C   0  0  0  0  0  0  0  0  0  0  0  0
   -3.1979    0.7832   -0.4352 C   0  0  0  0  0  0  0  0  0  0  0  0
   -1.9906    0.9532    0.4889 C   0  0  0  0  0  0  0  0  0  0  0  0
    2.2306   -0.2862   -0.5805 C   0  0  0  0  0  0  0  0  0  0  0  0
    6.3538    1.2483   -3.1075 H   0  0  0  0  0  0  0  0  0  0  0  0
    6.5794   -0.5427   -3.1968 H   0  0  0  0  0  0  0  0  0  0  0  0
    7.9682    0.5478   -3.2687 H   0  0  0  0  0  0  0  0  0  0  0  0
    4.5291    0.0775   -2.2057 H   0  0  0  0  0  0  0  0  0  0  0  0
    5.3107   -0.1367    2.7276 H   0  0  0  0  0  0  0  0  0  0  0  0
    8.9217    0.3470    2.7026 H   0  0  0  0  0  0  0  0  0  0  0  0
    7.3390    1.0323    3.0882 H   0  0  0  0  0  0  0  0  0  0  0  0
    7.5738   -0.7575    2.9964 H   0  0  0  0  0  0  0  0  0  0  0  0
    1.3452   -1.7305    0.7845 H   0  0  0  0  0  0  0  0  0  0  0  0
    0.6050    1.2262    1.1741 H   0  0  0  0  0  0  0  0  0  0  0  0
   -0.0314   -0.1147    2.1003 H   0  0  0  0  0  0  0  0  0  0  0  0
   -0.4820    0.3339   -0.9001 H   0  0  0  0  0  0  0  0  0  0  0  0
   -0.5772   -2.0733   -0.4172 H   0  0  0  0  0  0  0  0  0  0  0  0
   -1.6031   -1.7955    0.9891 H   0  0  0  0  0  0  0  0  0  0  0  0
   -2.9376   -2.5469   -0.8950 H   0  0  0  0  0  0  0  0  0  0  0  0
   -2.3045   -1.2767   -1.9472 H   0  0  0  0  0  0  0  0  0  0  0  0
   -5.0935   -1.8461   -1.4005 H   0  0  0  0  0  0  0  0  0  0  0  0
   -4.6580   -0.4095   -2.3137 H   0  0  0  0  0  0  0  0  0  0  0  0
   -5.9919   -1.1818    1.1585 H   0  0  0  0  0  0  0  0  0  0  0  0
   -8.0312   -0.1320    2.0884 H   0  0  0  0  0  0  0  0  0  0  0  0
   -9.2986    1.5267    0.7502 H   0  0  0  0  0  0  0  0  0  0  0  0
   -6.4876    1.0867   -2.4742 H   0  0  0  0  0  0  0  0  0  0  0  0
   -2.9377    1.1203   -1.4473 H   0  0  0  0  0  0  0  0  0  0  0  0
   -3.9886    1.4464   -0.0663 H   0  0  0  0  0  0  0  0  0  0  0  0
   -1.6566    1.9973    0.4559 H   0  0  0  0  0  0  0  0  0  0  0  0
   -2.2961    0.7507    1.5241 H   0  0  0  0  0  0  0  0  0  0  0  0
    2.0506   -1.0672   -1.3263 H   0  0  0  0  0  0  0  0  0  0  0  0
    1.8653    0.6710   -0.9679 H   0  0  0  0  0  0  0  0  0  0  0  0
  1  2  1  0
  2  3  1  0
  3  4  2  0
  4  5  1  0
  5  6  2  0
  6  7  1  0
  7  8  2  0
  8  9  1  0
  9 10  1  0
  6 11  1  0
 11 12  2  0
 11 13  1  0
 13 14  1  0
 14 15  1  0
 15 16  1  0
 16 17  1  0
 17 18  1  0
 18 19  1  0
 19 20  1  0
 20 21  2  0
 21 22  1  0
 22 23  2  0
 23 24  1  0
 24 25  1  0
 24 26  2  0
 18 27  1  0
 27 28  1  0
 13 29  1  0
  8  3  1  0
 28 15  1  0
 29  5  1  0
 26 20  1  0
  1 30  1  0
  1 31  1  0
  1 32  1  0
  4 33  1  0
  7 34  1  0
 10 35  1  0
 10 36  1  0
 10 37  1  0
 13 38  1  0
 14 39  1  0
 14 40  1  0
 15 41  1  0
 16 42  1  0
 16 43  1  0
 17 44  1  0
 17 45  1  0
 19 46  1  0
 19 47  1  0
 21 48  1  0
 22 49  1  0
 23 50  1  0
 26 51  1  0
 27 52  1  0
 27 53  1  0
 28 54  1  0
 28 55  1  0
 29 56  1  0
 29 57  1  0
M  END
$$$$
