FLCBADIIGVYFAJ-OEAKJJBVSA-N
     RDKit          3D

 55 58  0  0  0  0  0  0  0  0999 V2000
   -4.6380   -3.1468   -1.0785 C   0  0  0  0  0  0  0  0  0  0  0  0
   -3.6181   -2.2213   -0.4755 C   0  0  0  0  0  0  0  0  0  0  0  0
   -2.2964   -2.4467   -0.5833 C   0  0  0  0  0  0  0  0  0  0  0  0
   -1.8746   -3.5403   -1.2669 F   0  0  0  0  0  0  0  0  0  0  0  0
   -1.1687   -1.6118   -0.0451 C   0  0  0  0  0  0  0  0  0  0  0  0
   -1.3469   -0.6482    0.6874 O   0  0  0  0  0  0  0  0  0  0  0  0
    0.0540   -2.0811   -0.4855 N   0  0  0  0  0  0  0  0  0  0  0  0
    1.3333   -1.5506   -0.2204 C   0  0  0  0  0  0  0  0  0  0  0  0
    1.5745   -0.4328    0.5762 C   0  0  0  0  0  0  0  0  0  0  0  0
    2.8849    0.0287    0.7635 C   0  0  0  0  0  0  0  0  0  0  0  0
    3.9767   -0.6089    0.1522 C   0  0  0  0  0  0  0  0  0  0  0  0
    5.3430   -0.1113    0.3532 C   0  0  0  0  0  0  0  0  0  0  0  0
    6.0602   -0.5842    1.4707 C   0  0  0  0  0  0  0  0  0  0  0  0
    7.3621   -0.1536    1.7385 C   0  0  0  0  0  0  0  0  0  0  0  0
    7.9790    0.7624    0.8936 C   0  0  0  0  0  0  0  0  0  0  0  0
    7.2962    1.2452   -0.2221 C   0  0  0  0  0  0  0  0  0  0  0  0
    5.9856    0.8150   -0.4929 C   0  0  0  0  0  0  0  0  0  0  0  0
    5.1982    1.4551   -1.9491 S   0  0  0  0  0  0  0  0  0  0  0  0
    3.9020    2.3272   -1.3379 N   0  0  0  0  0  0  0  0  0  0  0  0
    6.0582    2.4513   -2.5499 O   0  0  0  0  0  0  0  0  0  0  0  0
    4.6535    0.3655   -2.7232 O   0  0  0  0  0  0  0  0  0  0  0  0
    3.7310   -1.7422   -0.6313 C   0  0  0  0  0  0  0  0  0  0  0  0
    2.4266   -2.1958   -0.8102 C   0  0  0  0  0  0  0  0  0  0  0  0
    2.2167   -3.2795   -1.5755 F   0  0  0  0  0  0  0  0  0  0  0  0
   -4.1918   -1.0552    0.2134 C   0  0  0  0  0  0  0  0  0  0  0  0
   -4.4339   -1.0946    1.5873 C   0  0  0  0  0  0  0  0  0  0  0  0
   -4.9772    0.0164    2.2352 C   0  0  0  0  0  0  0  0  0  0  0  0
   -5.2930    1.1835    1.5208 C   0  0  0  0  0  0  0  0  0  0  0  0
   -5.8208    2.3006    2.1716 C   0  0  0  0  0  0  0  0  0  0  0  0
   -6.1008    3.4295    1.4253 C   0  0  0  0  0  0  0  0  0  0  0  0
   -5.9097    3.5181    0.0940 N   0  0  0  0  0  0  0  0  0  0  0  0
   -5.4146    2.4350   -0.5371 C   0  0  0  0  0  0  0  0  0  0  0  0
   -5.2344    2.6057   -1.8993 N   0  0  0  0  0  0  0  0  0  0  0  0
   -5.0676    1.2384    0.1278 C   0  0  0  0  0  0  0  0  0  0  0  0
   -4.5064    0.1045   -0.5075 C   0  0  0  0  0  0  0  0  0  0  0  0
   -5.2421   -2.6233   -1.8281 H   0  0  0  0  0  0  0  0  0  0  0  0
   -5.3075   -3.5389   -0.3060 H   0  0  0  0  0  0  0  0  0  0  0  0
   -4.1758   -4.0069   -1.5746 H   0  0  0  0  0  0  0  0  0  0  0  0
    0.0416   -2.9004   -1.0883 H   0  0  0  0  0  0  0  0  0  0  0  0
    0.7695    0.1074    1.0655 H   0  0  0  0  0  0  0  0  0  0  0  0
    3.0467    0.9067    1.3889 H   0  0  0  0  0  0  0  0  0  0  0  0
    5.5989   -1.3046    2.1465 H   0  0  0  0  0  0  0  0  0  0  0  0
    7.8934   -0.5381    2.6060 H   0  0  0  0  0  0  0  0  0  0  0  0
    8.9932    1.0976    1.0989 H   0  0  0  0  0  0  0  0  0  0  0  0
    7.7969    1.9552   -0.8781 H   0  0  0  0  0  0  0  0  0  0  0  0
    3.0241    1.8988   -1.6348 H   0  0  0  0  0  0  0  0  0  0  0  0
    3.9930    3.3094   -1.5977 H   0  0  0  0  0  0  0  0  0  0  0  0
    4.5436   -2.2676   -1.1258 H   0  0  0  0  0  0  0  0  0  0  0  0
   -4.1858   -1.9797    2.1680 H   0  0  0  0  0  0  0  0  0  0  0  0
   -5.1392   -0.0326    3.3102 H   0  0  0  0  0  0  0  0  0  0  0  0
   -6.0040    2.3018    3.2403 H   0  0  0  0  0  0  0  0  0  0  0  0
   -6.5012    4.3239    1.8938 H   0  0  0  0  0  0  0  0  0  0  0  0
   -5.4846    1.8414   -2.5053 H   0  0  0  0  0  0  0  0  0  0  0  0
   -5.5081    3.5345   -2.1960 H   0  0  0  0  0  0  0  0  0  0  0  0
   -4.2955    0.1379   -1.5740 H   0  0  0  0  0  0  0  0  0  0  0  0
  1  2  1  0
  2  3  2  0
  3  4  1  0
  3  5  1  0
  5  6  2  0
  5  7  1  0
  7  8  1  0
  8  9  2  0
  9 10  1  0
 10 11  2  0
 11 12  1  0
 12 13  2  0
 13 14  1  0
 14 15  2  0
 15 16  1  0
 16 17  2  0
 17 18  1  0
 18 19  1  0
 18 20  2  0
 18 21  2  0
 11 22  1  0
 22 23  2  0
 23 24  1  0
  2 25  1  0
 25 26  2  0
 26 27  1  0
 27 28  2  0
 28 29  1  0
 29 30  2  0
 30 31  1  0
 31 32  2  0
 32 33  1  0
 32 34  1  0
 34 35  2  0
 23  8  1  0
 35 25  1  0
 17 12  1  0
 34 28  1  0
  1 36  1  0
  1 37  1  0
  1 38  1  0
  7 39  1  0
  9 40  1  0
 10 41  1  0
 13 42  1  0
 14 43  1  0
 15 44  1  0
 16 45  1  0
 19 46  1  0
 19 47  1  0
 22 48  1  0
 26 49  1  0
 27 50  1  0
 29 51  1  0
 30 52  1  0
 33 53  1  0
 33 54  1  0
 35 55  1  0
M  END
$$$$
