FMXAKYUKNGWYKW-UHFFFAOYSA-N
     RDKit          3D

 68 70  0  0  0  0  0  0  0  0999 V2000
   -0.2727    4.2447    3.3447 C   0  0  0  0  0  0  0  0  0  0  0  0
   -1.0081    4.6983    2.0906 C   0  0  0  0  0  0  0  0  0  0  0  0
   -1.4877    3.5342    1.2182 C   0  0  0  0  0  0  0  0  0  0  0  0
   -0.3363    2.7646    0.5614 C   0  0  0  0  0  0  0  0  0  0  0  0
   -0.8695    1.7167   -0.3520 N   0  0  0  0  0  0  0  0  0  0  0  0
   -1.5757    0.6069    0.2468 C   0  0  0  0  0  0  0  0  0  0  0  0
   -0.9638   -0.1462    1.2595 C   0  0  0  0  0  0  0  0  0  0  0  0
   -1.5978   -1.2642    1.7908 C   0  0  0  0  0  0  0  0  0  0  0  0
   -2.8416   -1.6492    1.2999 C   0  0  0  0  0  0  0  0  0  0  0  0
   -3.4808   -0.9177    0.2816 C   0  0  0  0  0  0  0  0  0  0  0  0
   -4.7757   -1.4047   -0.2186 C   0  0  0  0  0  0  0  0  0  0  0  0
   -4.8594   -2.0707   -1.4520 C   0  0  0  0  0  0  0  0  0  0  0  0
   -6.0831   -2.5518   -1.9225 C   0  0  0  0  0  0  0  0  0  0  0  0
   -7.2347   -2.3699   -1.1609 C   0  0  0  0  0  0  0  0  0  0  0  0
   -8.7423   -2.9624   -1.7398 Cl  0  0  0  0  0  0  0  0  0  0  0  0
   -7.1736   -1.7142    0.0665 C   0  0  0  0  0  0  0  0  0  0  0  0
   -5.9478   -1.2347    0.5355 C   0  0  0  0  0  0  0  0  0  0  0  0
   -2.8499    0.2405   -0.2391 C   0  0  0  0  0  0  0  0  0  0  0  0
   -3.5363    1.0567   -1.3097 C   0  0  0  0  0  0  0  0  0  0  0  0
    0.0832    1.3460   -1.7379 S   0  0  0  0  0  0  0  0  0  0  0  0
    0.5963    2.5989   -2.2637 O   0  0  0  0  0  0  0  0  0  0  0  0
   -0.6475    0.4615   -2.6207 O   0  0  0  0  0  0  0  0  0  0  0  0
    1.4975    0.4591   -1.0545 C   0  0  0  0  0  0  0  0  0  0  0  0
    2.5596    1.2682   -0.6141 C   0  0  0  0  0  0  0  0  0  0  0  0
    3.7170    0.6986   -0.0989 C   0  0  0  0  0  0  0  0  0  0  0  0
    3.8388   -0.6870   -0.0422 C   0  0  0  0  0  0  0  0  0  0  0  0
    4.9789   -1.2407    0.4817 O   0  0  0  0  0  0  0  0  0  0  0  0
    6.1462   -0.9794   -0.3121 C   0  0  0  0  0  0  0  0  0  0  0  0
    7.1811   -0.3242    0.5971 C   0  0  0  0  0  0  0  0  0  0  0  0
    6.7171   -2.2840   -0.8645 C   0  0  0  0  0  0  0  0  0  0  0  0
    6.3823   -3.4232   -0.5872 O   0  0  0  0  0  0  0  0  0  0  0  0
    7.7059   -2.0745   -1.7633 O   0  0  0  0  0  0  0  0  0  0  0  0
    2.7849   -1.5269   -0.4514 C   0  0  0  0  0  0  0  0  0  0  0  0
    2.9322   -3.0260   -0.3177 C   0  0  0  0  0  0  0  0  0  0  0  0
    1.5954   -0.9536   -0.9920 C   0  0  0  0  0  0  0  0  0  0  0  0
    0.5190   -1.8597   -1.5411 C   0  0  0  0  0  0  0  0  0  0  0  0
    0.6577    3.7234    3.1019 H   0  0  0  0  0  0  0  0  0  0  0  0
   -0.0168    5.1106    3.9651 H   0  0  0  0  0  0  0  0  0  0  0  0
   -0.9019    3.5735    3.9411 H   0  0  0  0  0  0  0  0  0  0  0  0
   -0.3614    5.3657    1.5084 H   0  0  0  0  0  0  0  0  0  0  0  0
   -1.8813    5.2861    2.3969 H   0  0  0  0  0  0  0  0  0  0  0  0
   -2.1464    3.9309    0.4366 H   0  0  0  0  0  0  0  0  0  0  0  0
   -2.1027    2.8593    1.8250 H   0  0  0  0  0  0  0  0  0  0  0  0
    0.3164    2.3177    1.3175 H   0  0  0  0  0  0  0  0  0  0  0  0
    0.2699    3.4855    0.0020 H   0  0  0  0  0  0  0  0  0  0  0  0
    0.0235    0.1116    1.6332 H   0  0  0  0  0  0  0  0  0  0  0  0
   -1.1136   -1.8493    2.5686 H   0  0  0  0  0  0  0  0  0  0  0  0
   -3.3137   -2.5425    1.7045 H   0  0  0  0  0  0  0  0  0  0  0  0
   -3.9623   -2.2146   -2.0522 H   0  0  0  0  0  0  0  0  0  0  0  0
   -6.1293   -3.0613   -2.8804 H   0  0  0  0  0  0  0  0  0  0  0  0
   -8.0703   -1.5692    0.6617 H   0  0  0  0  0  0  0  0  0  0  0  0
   -5.9102   -0.7195    1.4937 H   0  0  0  0  0  0  0  0  0  0  0  0
   -3.0745    2.0396   -1.4495 H   0  0  0  0  0  0  0  0  0  0  0  0
   -3.5054    0.5285   -2.2682 H   0  0  0  0  0  0  0  0  0  0  0  0
   -4.5800    1.2522   -1.0360 H   0  0  0  0  0  0  0  0  0  0  0  0
    2.4986    2.3532   -0.6780 H   0  0  0  0  0  0  0  0  0  0  0  0
    4.5187    1.3395    0.2540 H   0  0  0  0  0  0  0  0  0  0  0  0
    5.9275   -0.3310   -1.1724 H   0  0  0  0  0  0  0  0  0  0  0  0
    8.0998   -0.0751    0.0551 H   0  0  0  0  0  0  0  0  0  0  0  0
    6.7835    0.5935    1.0416 H   0  0  0  0  0  0  0  0  0  0  0  0
    7.4456   -0.9882    1.4276 H   0  0  0  0  0  0  0  0  0  0  0  0
    7.9708   -2.9781   -2.0409 H   0  0  0  0  0  0  0  0  0  0  0  0
    3.8742   -3.3239    0.1512 H   0  0  0  0  0  0  0  0  0  0  0  0
    2.1379   -3.4264    0.3210 H   0  0  0  0  0  0  0  0  0  0  0  0
    2.8911   -3.4996   -1.3045 H   0  0  0  0  0  0  0  0  0  0  0  0
   -0.4833   -1.5057   -1.2975 H   0  0  0  0  0  0  0  0  0  0  0  0
    0.6287   -1.9488   -2.6279 H   0  0  0  0  0  0  0  0  0  0  0  0
    0.5582   -2.8676   -1.1174 H   0  0  0  0  0  0  0  0  0  0  0  0
  1  2  1  0
  2  3  1  0
  3  4  1  0
  4  5  1  0
  5  6  1  0
  6  7  2  0
  7  8  1  0
  8  9  2  0
  9 10  1  0
 10 11  1  0
 11 12  2  0
 12 13  1  0
 13 14  2  0
 14 15  1  0
 14 16  1  0
 16 17  2  0
 10 18  2  0
 18 19  1  0
  5 20  1  0
 20 21  2  0
 20 22  2  0
 20 23  1  0
 23 24  2  0
 24 25  1  0
 25 26  2  0
 26 27  1  0
 27 28  1  0
 28 29  1  0
 28 30  1  0
 30 31  2  0
 30 32  1  0
 26 33  1  0
 33 34  1  0
 33 35  2  0
 35 36  1  0
 18  6  1  0
 35 23  1  0
 17 11  1  0
  1 37  1  0
  1 38  1  0
  1 39  1  0
  2 40  1  0
  2 41  1  0
  3 42  1  0
  3 43  1  0
  4 44  1  0
  4 45  1  0
  7 46  1  0
  8 47  1  0
  9 48  1  0
 12 49  1  0
 13 50  1  0
 16 51  1  0
 17 52  1  0
 19 53  1  0
 19 54  1  0
 19 55  1  0
 24 56  1  0
 25 57  1  0
 28 58  1  0
 29 59  1  0
 29 60  1  0
 29 61  1  0
 32 62  1  0
 34 63  1  0
 34 64  1  0
 34 65  1  0
 36 66  1  0
 36 67  1  0
 36 68  1  0
M  END
$$$$
