GCIDBNWNLPXDBD-UHFFFAOYSA-N
     RDKit          3D

 51 55  0  0  0  0  0  0  0  0999 V2000
    6.7829    1.0810   -1.0687 C   0  0  0  0  0  0  0  0  0  0  0  0
    6.0421    0.7710    0.1047 O   0  0  0  0  0  0  0  0  0  0  0  0
    5.0346   -0.2539   -0.0374 C   0  0  0  0  0  0  0  0  0  0  0  0
    4.3004   -0.6343    1.2678 C   0  0  0  0  0  0  0  0  0  0  0  0
    3.1764    0.3767    0.8785 C   0  0  0  0  0  0  0  0  0  0  0  0
    3.3026    1.7492    1.5439 C   0  0  0  0  0  0  0  0  0  0  0  0
    2.4139    2.7381    0.9192 C   0  0  0  0  0  0  0  0  0  0  0  0
    1.7064    3.4968    0.4003 N   0  0  0  0  0  0  0  0  0  0  0  0
    1.8268   -0.2047    1.1196 N   0  0  0  0  0  0  0  0  0  0  0  0
    0.7660   -0.1151    0.2608 C   0  0  0  0  0  0  0  0  0  0  0  0
   -0.2908   -0.7315    0.8949 C   0  0  0  0  0  0  0  0  0  0  0  0
   -1.6222   -0.8643    0.3337 C   0  0  0  0  0  0  0  0  0  0  0  0
   -2.3205    0.3100    0.0161 C   0  0  0  0  0  0  0  0  0  0  0  0
   -3.6148    0.2440   -0.4976 C   0  0  0  0  0  0  0  0  0  0  0  0
   -4.3387    1.4580   -0.8243 C   0  0  0  0  0  0  0  0  0  0  0  0
   -4.9889    1.6589   -2.0244 C   0  0  0  0  0  0  0  0  0  0  0  0
   -5.5153    2.9143   -1.9597 N   0  0  0  0  0  0  0  0  0  0  0  0
   -5.2610    3.5458   -0.8054 N   0  0  0  0  0  0  0  0  0  0  0  0
   -4.5475    2.6669   -0.1069 C   0  0  0  0  0  0  0  0  0  0  0  0
   -4.1104    2.9175    1.1296 N   0  0  0  0  0  0  0  0  0  0  0  0
   -4.2026   -1.0100   -0.6962 C   0  0  0  0  0  0  0  0  0  0  0  0
   -3.5390   -2.1915   -0.4025 C   0  0  0  0  0  0  0  0  0  0  0  0
   -4.1862   -3.3471   -0.6347 N   0  0  0  0  0  0  0  0  0  0  0  0
   -3.5499   -4.5058   -0.3668 C   0  0  0  0  0  0  0  0  0  0  0  0
   -2.2665   -4.5742    0.1293 C   0  0  0  0  0  0  0  0  0  0  0  0
   -1.6001   -3.3781    0.3695 C   0  0  0  0  0  0  0  0  0  0  0  0
   -2.2260   -2.1350    0.1173 C   0  0  0  0  0  0  0  0  0  0  0  0
    0.2283   -1.1183    2.1487 C   0  0  0  0  0  0  0  0  0  0  0  0
    1.5175   -0.7983    2.2877 N   0  0  0  0  0  0  0  0  0  0  0  0
    3.6690    0.2094   -0.5932 C   0  0  0  0  0  0  0  0  0  0  0  0
    6.1126    1.4239   -1.8616 H   0  0  0  0  0  0  0  0  0  0  0  0
    7.3398    0.2014   -1.4034 H   0  0  0  0  0  0  0  0  0  0  0  0
    7.4902    1.8798   -0.8319 H   0  0  0  0  0  0  0  0  0  0  0  0
    5.4487   -1.1282   -0.5536 H   0  0  0  0  0  0  0  0  0  0  0  0
    4.0044   -1.6909    1.2915 H   0  0  0  0  0  0  0  0  0  0  0  0
    4.8419   -0.4115    2.1927 H   0  0  0  0  0  0  0  0  0  0  0  0
    3.0752    1.6758    2.6146 H   0  0  0  0  0  0  0  0  0  0  0  0
    4.3316    2.1204    1.4800 H   0  0  0  0  0  0  0  0  0  0  0  0
    0.8450    0.3686   -0.7037 H   0  0  0  0  0  0  0  0  0  0  0  0
   -1.8491    1.2810    0.1666 H   0  0  0  0  0  0  0  0  0  0  0  0
   -5.1110    1.0417   -2.9027 H   0  0  0  0  0  0  0  0  0  0  0  0
   -6.0562    3.4046   -2.6638 H   0  0  0  0  0  0  0  0  0  0  0  0
   -3.6160    2.2489    1.7027 H   0  0  0  0  0  0  0  0  0  0  0  0
   -4.3108    3.8158    1.5505 H   0  0  0  0  0  0  0  0  0  0  0  0
   -5.2163   -1.0780   -1.0871 H   0  0  0  0  0  0  0  0  0  0  0  0
   -4.1214   -5.4062   -0.5739 H   0  0  0  0  0  0  0  0  0  0  0  0
   -1.7934   -5.5302    0.3216 H   0  0  0  0  0  0  0  0  0  0  0  0
   -0.5815   -3.4270    0.7458 H   0  0  0  0  0  0  0  0  0  0  0  0
   -0.2818   -1.6152    2.9649 H   0  0  0  0  0  0  0  0  0  0  0  0
    3.1719   -0.5731   -1.1801 H   0  0  0  0  0  0  0  0  0  0  0  0
    3.6894    1.1230   -1.1945 H   0  0  0  0  0  0  0  0  0  0  0  0
  1  2  1  0
  2  3  1  0
  3  4  1  0
  4  5  1  0
  5  6  1  0
  6  7  1  0
  7  8  3  0
  5  9  1  0
  9 10  1  0
 10 11  2  0
 11 12  1  0
 12 13  2  0
 13 14  1  0
 14 15  1  0
 15 16  2  0
 16 17  1  0
 17 18  1  0
 18 19  2  0
 19 20  1  0
 14 21  2  0
 21 22  1  0
 22 23  2  0
 23 24  1  0
 24 25  2  0
 25 26  1  0
 26 27  2  0
 11 28  1  0
 28 29  2  0
  5 30  1  0
 30  3  1  0
 29  9  1  0
 27 12  1  0
 19 15  1  0
 27 22  1  0
  1 31  1  0
  1 32  1  0
  1 33  1  0
  3 34  1  0
  4 35  1  0
  4 36  1  0
  6 37  1  0
  6 38  1  0
 10 39  1  0
 13 40  1  0
 16 41  1  0
 17 42  1  0
 20 43  1  0
 20 44  1  0
 21 45  1  0
 24 46  1  0
 25 47  1  0
 26 48  1  0
 28 49  1  0
 30 50  1  0
 30 51  1  0
M  END
$$$$
