HEWRQLQNINUEQT-IBGZPJMESA-N
     RDKit          3D

 55 58  0  0  0  0  0  0  0  0999 V2000
   -2.9575   -1.5146    4.2454 C   0  0  0  0  0  0  0  0  0  0  0  0
   -3.0619   -1.1277    2.8201 C   0  0  0  0  0  0  0  0  0  0  0  0
   -3.8932   -0.1068    2.4425 N   0  0  0  0  0  0  0  0  0  0  0  0
   -3.7499    0.0363    1.1381 C   0  0  0  0  0  0  0  0  0  0  0  0
   -4.4353    1.0533    0.3373 C   0  0  0  0  0  0  0  0  0  0  0  0
   -3.7354    1.8938   -0.5390 C   0  0  0  0  0  0  0  0  0  0  0  0
   -4.4132    2.8581   -1.2894 C   0  0  0  0  0  0  0  0  0  0  0  0
   -5.7943    2.9978   -1.1617 C   0  0  0  0  0  0  0  0  0  0  0  0
   -6.4977    2.1822   -0.2772 C   0  0  0  0  0  0  0  0  0  0  0  0
   -5.8197    1.2190    0.4730 C   0  0  0  0  0  0  0  0  0  0  0  0
   -2.8959   -0.9360    0.6489 N   0  0  0  0  0  0  0  0  0  0  0  0
   -2.6122   -1.1734   -0.7481 C   0  0  0  0  0  0  0  0  0  0  0  0
   -2.4116   -1.6581    1.7206 C   0  0  0  0  0  0  0  0  0  0  0  0
   -1.4011   -2.7615    1.6398 C   0  0  0  0  0  0  0  0  0  0  0  0
    0.0324   -2.2313    1.5319 C   0  0  0  0  0  0  0  0  0  0  0  0
    0.2791   -1.8293    0.1815 O   0  0  0  0  0  0  0  0  0  0  0  0
    1.5115   -1.3041   -0.0998 C   0  0  0  0  0  0  0  0  0  0  0  0
    2.5549   -1.1196    0.8214 C   0  0  0  0  0  0  0  0  0  0  0  0
    3.7748   -0.5617    0.4201 C   0  0  0  0  0  0  0  0  0  0  0  0
    3.9357   -0.1981   -0.9062 C   0  0  0  0  0  0  0  0  0  0  0  0
    2.9053   -0.3971   -1.8294 C   0  0  0  0  0  0  0  0  0  0  0  0
    1.6908   -0.9365   -1.4379 C   0  0  0  0  0  0  0  0  0  0  0  0
    3.3042    0.0770   -3.1901 C   0  0  0  0  0  0  0  0  0  0  0  0
    4.8325    0.1246   -3.0443 C   0  0  0  0  0  0  0  0  0  0  0  0
    5.1350    0.4390   -1.5597 C   0  0  1  0  0  0  0  0  0  0  0  0
    5.2122    1.9474   -1.3085 C   0  0  0  0  0  0  0  0  0  0  0  0
    5.7365    2.2702    0.0642 C   0  0  0  0  0  0  0  0  0  0  0  0
    6.4004    1.5547    0.7942 O   0  0  0  0  0  0  0  0  0  0  0  0
    5.4352    3.5309    0.4342 O   0  0  0  0  0  0  0  0  0  0  0  0
   -3.3405   -2.5288    4.3946 H   0  0  0  0  0  0  0  0  0  0  0  0
   -3.5356   -0.8354    4.8798 H   0  0  0  0  0  0  0  0  0  0  0  0
   -1.9150   -1.4833    4.5770 H   0  0  0  0  0  0  0  0  0  0  0  0
   -2.6543    1.8203   -0.6266 H   0  0  0  0  0  0  0  0  0  0  0  0
   -3.8615    3.5081   -1.9634 H   0  0  0  0  0  0  0  0  0  0  0  0
   -6.3210    3.7520   -1.7406 H   0  0  0  0  0  0  0  0  0  0  0  0
   -7.5721    2.2991   -0.1628 H   0  0  0  0  0  0  0  0  0  0  0  0
   -6.3713    0.5945    1.1733 H   0  0  0  0  0  0  0  0  0  0  0  0
   -1.8071   -0.5026   -1.0553 H   0  0  0  0  0  0  0  0  0  0  0  0
   -3.5134   -0.9878   -1.3381 H   0  0  0  0  0  0  0  0  0  0  0  0
   -2.3177   -2.2130   -0.9004 H   0  0  0  0  0  0  0  0  0  0  0  0
   -1.4781   -3.3658    2.5521 H   0  0  0  0  0  0  0  0  0  0  0  0
   -1.6311   -3.4291    0.8026 H   0  0  0  0  0  0  0  0  0  0  0  0
    0.1779   -1.3887    2.2191 H   0  0  0  0  0  0  0  0  0  0  0  0
    0.7212   -3.0447    1.7901 H   0  0  0  0  0  0  0  0  0  0  0  0
    2.4492   -1.3982    1.8648 H   0  0  0  0  0  0  0  0  0  0  0  0
    4.5760   -0.4222    1.1407 H   0  0  0  0  0  0  0  0  0  0  0  0
    0.8898   -1.0773   -2.1564 H   0  0  0  0  0  0  0  0  0  0  0  0
    2.8907    1.0724   -3.3811 H   0  0  0  0  0  0  0  0  0  0  0  0
    3.0008   -0.6146   -3.9810 H   0  0  0  0  0  0  0  0  0  0  0  0
    5.2933    0.8313   -3.7422 H   0  0  0  0  0  0  0  0  0  0  0  0
    5.2394   -0.8686   -3.2840 H   0  0  0  0  0  0  0  0  0  0  0  0
    6.0596   -0.0674   -1.2593 H   0  0  0  0  0  0  0  0  0  0  0  0
    5.8996    2.4124   -2.0246 H   0  0  0  0  0  0  0  0  0  0  0  0
    4.2257    2.4124   -1.4248 H   0  0  0  0  0  0  0  0  0  0  0  0
    5.8340    3.6223    1.3247 H   0  0  0  0  0  0  0  0  0  0  0  0
  1  2  1  0
  2  3  1  0
  3  4  2  0
  4  5  1  0
  5  6  2  0
  6  7  1  0
  7  8  2  0
  8  9  1  0
  9 10  2  0
  4 11  1  0
 11 12  1  0
 11 13  1  0
 13 14  1  0
 14 15  1  0
 15 16  1  0
 16 17  1  0
 17 18  2  0
 18 19  1  0
 19 20  2  0
 20 21  1  0
 21 22  2  0
 21 23  1  0
 23 24  1  0
 24 25  1  0
 25 26  1  0
 26 27  1  0
 27 28  2  0
 27 29  1  0
 13  2  2  0
 22 17  1  0
 10  5  1  0
 25 20  1  0
  1 30  1  0
  1 31  1  0
  1 32  1  0
  6 33  1  0
  7 34  1  0
  8 35  1  0
  9 36  1  0
 10 37  1  0
 12 38  1  0
 12 39  1  0
 12 40  1  0
 14 41  1  0
 14 42  1  0
 15 43  1  0
 15 44  1  0
 18 45  1  0
 19 46  1  0
 22 47  1  0
 23 48  1  0
 23 49  1  0
 24 50  1  0
 24 51  1  0
 25 52  1  1
 26 53  1  0
 26 54  1  0
 29 55  1  0
M  END
$$$$
