HHOQFQNZGOWBHS-UHFFFAOYSA-N
     RDKit          3D

 65 67  0  0  0  0  0  0  0  0999 V2000
    1.3212   -2.7708   -1.9338 C   0  0  0  0  0  0  0  0  0  0  0  0
    1.9045   -1.4436   -1.6918 N   0  0  0  0  0  0  0  0  0  0  0  0
    3.2726   -1.4137   -2.2384 C   0  0  0  0  0  0  0  0  0  0  0  0
    4.0896   -0.1414   -1.9458 C   0  0  0  0  0  0  0  0  0  0  0  0
    4.1222    0.3446   -0.4740 C   0  0  0  0  0  0  0  0  0  0  0  0
    4.9094    1.6688   -0.4310 C   0  0  0  0  0  0  0  0  0  0  0  0
    5.0669    2.3135    0.9465 C   0  0  0  0  0  0  0  0  0  0  0  0
    6.0841    1.5871    1.8204 C   0  0  0  0  0  0  0  0  0  0  0  0
    5.5221    0.4198    2.6226 C   0  0  0  0  0  0  0  0  0  0  0  0
    4.4377   -0.4150    1.9523 C   0  0  0  0  0  0  0  0  0  0  0  0
    4.6766   -0.7328    0.4763 C   0  0  0  0  0  0  0  0  0  0  0  0
    1.0638   -0.3796   -2.2712 C   0  0  0  0  0  0  0  0  0  0  0  0
   -0.2912   -0.2979   -1.6230 C   0  0  0  0  0  0  0  0  0  0  0  0
   -1.4919   -0.1653   -2.2952 C   0  0  0  0  0  0  0  0  0  0  0  0
   -2.4965   -0.0768   -1.3726 N   0  0  0  0  0  0  0  0  0  0  0  0
   -1.9992   -0.1625   -0.0959 C   0  0  0  0  0  0  0  0  0  0  0  0
   -2.6298   -0.1375    1.1557 C   0  0  0  0  0  0  0  0  0  0  0  0
   -4.0404   -0.0286    1.4283 O   0  0  0  0  0  0  0  0  0  0  0  0
   -5.0988    0.1961    0.5364 C   0  0  0  0  0  0  0  0  0  0  0  0
   -4.9486    0.3575   -0.6725 O   0  0  0  0  0  0  0  0  0  0  0  0
   -6.3353    0.2196    1.2004 N   0  0  0  0  0  0  0  0  0  0  0  0
   -6.4372    0.0313    2.6384 C   0  0  0  0  0  0  0  0  0  0  0  0
   -7.5629    0.4885    0.5214 N   0  0  0  0  0  0  0  0  0  0  0  0
   -7.8867   -0.5239   -0.4857 C   0  0  0  0  0  0  0  0  0  0  0  0
   -7.6112    1.8394   -0.0401 C   0  0  0  0  0  0  0  0  0  0  0  0
   -1.8398   -0.2537    2.3065 C   0  0  0  0  0  0  0  0  0  0  0  0
   -0.4580   -0.3761    2.2099 C   0  0  0  0  0  0  0  0  0  0  0  0
    0.1627   -0.3920    0.9578 C   0  0  0  0  0  0  0  0  0  0  0  0
   -0.6108   -0.2918   -0.2206 C   0  0  0  0  0  0  0  0  0  0  0  0
    1.9502   -3.5507   -1.4877 H   0  0  0  0  0  0  0  0  0  0  0  0
    0.3395   -2.8778   -1.4629 H   0  0  0  0  0  0  0  0  0  0  0  0
    1.2157   -2.9858   -3.0039 H   0  0  0  0  0  0  0  0  0  0  0  0
    3.2478   -1.5618   -3.3273 H   0  0  0  0  0  0  0  0  0  0  0  0
    3.8373   -2.2648   -1.8363 H   0  0  0  0  0  0  0  0  0  0  0  0
    3.7134    0.6718   -2.5807 H   0  0  0  0  0  0  0  0  0  0  0  0
    5.1190   -0.3243   -2.2829 H   0  0  0  0  0  0  0  0  0  0  0  0
    3.0929    0.5735   -0.1733 H   0  0  0  0  0  0  0  0  0  0  0  0
    4.3941    2.3922   -1.0766 H   0  0  0  0  0  0  0  0  0  0  0  0
    5.9015    1.5233   -0.8773 H   0  0  0  0  0  0  0  0  0  0  0  0
    4.0993    2.4112    1.4515 H   0  0  0  0  0  0  0  0  0  0  0  0
    5.4361    3.3353    0.7865 H   0  0  0  0  0  0  0  0  0  0  0  0
    6.5181    2.3028    2.5315 H   0  0  0  0  0  0  0  0  0  0  0  0
    6.9226    1.2371    1.2050 H   0  0  0  0  0  0  0  0  0  0  0  0
    6.3569   -0.2351    2.9038 H   0  0  0  0  0  0  0  0  0  0  0  0
    5.1153    0.8022    3.5679 H   0  0  0  0  0  0  0  0  0  0  0  0
    4.3627   -1.3600    2.5054 H   0  0  0  0  0  0  0  0  0  0  0  0
    3.4658    0.0763    2.0797 H   0  0  0  0  0  0  0  0  0  0  0  0
    4.1580   -1.6780    0.2816 H   0  0  0  0  0  0  0  0  0  0  0  0
    5.7391   -0.9182    0.2806 H   0  0  0  0  0  0  0  0  0  0  0  0
    0.9558   -0.5223   -3.3548 H   0  0  0  0  0  0  0  0  0  0  0  0
    1.5278    0.6023   -2.1218 H   0  0  0  0  0  0  0  0  0  0  0  0
   -1.7147   -0.1136   -3.3524 H   0  0  0  0  0  0  0  0  0  0  0  0
   -3.4817    0.0520   -1.5797 H   0  0  0  0  0  0  0  0  0  0  0  0
   -5.8750   -0.8607    2.9321 H   0  0  0  0  0  0  0  0  0  0  0  0
   -7.4820   -0.0877    2.9420 H   0  0  0  0  0  0  0  0  0  0  0  0
   -6.0041    0.9034    3.1382 H   0  0  0  0  0  0  0  0  0  0  0  0
   -8.9139   -0.3862   -0.8407 H   0  0  0  0  0  0  0  0  0  0  0  0
   -7.2207   -0.4861   -1.3549 H   0  0  0  0  0  0  0  0  0  0  0  0
   -7.8335   -1.5300   -0.0539 H   0  0  0  0  0  0  0  0  0  0  0  0
   -7.3691    2.5837    0.7259 H   0  0  0  0  0  0  0  0  0  0  0  0
   -6.9234    1.9755   -0.8804 H   0  0  0  0  0  0  0  0  0  0  0  0
   -8.6235    2.0665   -0.3926 H   0  0  0  0  0  0  0  0  0  0  0  0
   -2.3091   -0.2502    3.2861 H   0  0  0  0  0  0  0  0  0  0  0  0
    0.1466   -0.4719    3.1072 H   0  0  0  0  0  0  0  0  0  0  0  0
    1.2401   -0.5072    0.8886 H   0  0  0  0  0  0  0  0  0  0  0  0
  1  2  1  0
  2  3  1  0
  3  4  1  0
  4  5  1  0
  5  6  1  0
  6  7  1  0
  7  8  1  0
  8  9  1  0
  9 10  1  0
 10 11  1  0
  2 12  1  0
 12 13  1  0
 13 14  2  0
 14 15  1  0
 15 16  1  0
 16 17  2  0
 17 18  1  0
 18 19  1  0
 19 20  2  0
 19 21  1  0
 21 22  1  0
 21 23  1  0
 23 24  1  0
 23 25  1  0
 17 26  1  0
 26 27  2  0
 27 28  1  0
 28 29  2  0
 11  5  1  0
 29 13  1  0
 29 16  1  0
  1 30  1  0
  1 31  1  0
  1 32  1  0
  3 33  1  0
  3 34  1  0
  4 35  1  0
  4 36  1  0
  5 37  1  0
  6 38  1  0
  6 39  1  0
  7 40  1  0
  7 41  1  0
  8 42  1  0
  8 43  1  0
  9 44  1  0
  9 45  1  0
 10 46  1  0
 10 47  1  0
 11 48  1  0
 11 49  1  0
 12 50  1  0
 12 51  1  0
 14 52  1  0
 15 53  1  0
 22 54  1  0
 22 55  1  0
 22 56  1  0
 24 57  1  0
 24 58  1  0
 24 59  1  0
 25 60  1  0
 25 61  1  0
 25 62  1  0
 26 63  1  0
 27 64  1  0
 28 65  1  0
M  END
$$$$
