IMPZSGOWSPHBCV-UHFFFAOYSA-N
     RDKit          3D

 48 52  0  0  0  0  0  0  0  0999 V2000
    2.2296   -4.4115    1.7230 N   0  0  0  0  0  0  0  0  0  0  0  0
    2.3417   -3.6691    0.8393 C   0  0  0  0  0  0  0  0  0  0  0  0
    2.5265   -2.7010   -0.2490 C   0  0  0  0  0  0  0  0  0  0  0  0
    2.6184   -1.2793    0.2864 C   0  0  0  0  0  0  0  0  0  0  0  0
    1.2954   -0.8069    0.7857 N   0  0  0  0  0  0  0  0  0  0  0  0
    0.8622   -0.8843    2.0771 C   0  0  0  0  0  0  0  0  0  0  0  0
   -0.4425   -0.4543    2.0592 C   0  0  0  0  0  0  0  0  0  0  0  0
   -0.7370   -0.1619    0.6982 C   0  0  0  0  0  0  0  0  0  0  0  0
   -2.0317    0.2969    0.1680 C   0  0  0  0  0  0  0  0  0  0  0  0
   -3.0960   -0.2186    0.8394 N   0  0  0  0  0  0  0  0  0  0  0  0
   -4.3310    0.1165    0.4108 C   0  0  0  0  0  0  0  0  0  0  0  0
   -5.4464   -0.4697    1.1493 C   0  0  0  0  0  0  0  0  0  0  0  0
   -5.3868   -1.3729    2.2374 C   0  0  0  0  0  0  0  0  0  0  0  0
   -6.6164   -1.6877    2.6563 N   0  0  0  0  0  0  0  0  0  0  0  0
   -7.3674   -0.9699    1.8089 N   0  0  0  0  0  0  0  0  0  0  0  0
   -6.7440   -0.2201    0.8855 N   0  0  0  0  0  0  0  0  0  0  0  0
   -4.5425    0.9636   -0.6627 C   0  0  0  0  0  0  0  0  0  0  0  0
   -3.4663    1.5068   -1.3332 C   0  0  0  0  0  0  0  0  0  0  0  0
   -3.7291    2.3375   -2.3578 N   0  0  0  0  0  0  0  0  0  0  0  0
   -2.6935    2.8974   -3.0179 C   0  0  0  0  0  0  0  0  0  0  0  0
   -1.3736    2.6693   -2.6983 C   0  0  0  0  0  0  0  0  0  0  0  0
   -1.1050    1.8087   -1.6408 C   0  0  0  0  0  0  0  0  0  0  0  0
   -2.1587    1.1865   -0.9244 C   0  0  0  0  0  0  0  0  0  0  0  0
    0.3286   -0.4350   -0.0759 N   0  0  0  0  0  0  0  0  0  0  0  0
    3.2512   -0.2438   -0.6922 C   0  0  0  0  0  0  0  0  0  0  0  0
    3.9491    0.3615    0.4670 N   0  0  0  0  0  0  0  0  0  0  0  0
    5.3635    0.6633    0.1493 C   0  0  0  0  0  0  0  0  0  0  0  0
    5.5983    1.8889   -0.7500 C   0  0  0  0  0  0  0  0  0  0  0  0
    5.0850    3.0183   -0.2185 F   0  0  0  0  0  0  0  0  0  0  0  0
    5.0532    1.7143   -1.9759 F   0  0  0  0  0  0  0  0  0  0  0  0
    6.9262    2.0889   -0.9277 F   0  0  0  0  0  0  0  0  0  0  0  0
    3.8265   -0.9174    1.1986 C   0  0  0  0  0  0  0  0  0  0  0  0
    3.4472   -2.9619   -0.7859 H   0  0  0  0  0  0  0  0  0  0  0  0
    1.7128   -2.7940   -0.9781 H   0  0  0  0  0  0  0  0  0  0  0  0
    1.4858   -1.2356    2.8866 H   0  0  0  0  0  0  0  0  0  0  0  0
   -1.1136   -0.3753    2.9038 H   0  0  0  0  0  0  0  0  0  0  0  0
   -4.5183   -1.7977    2.7222 H   0  0  0  0  0  0  0  0  0  0  0  0
   -8.3831   -0.9930    1.8647 H   0  0  0  0  0  0  0  0  0  0  0  0
   -5.5504    1.2136   -0.9814 H   0  0  0  0  0  0  0  0  0  0  0  0
   -2.9682    3.5588   -3.8348 H   0  0  0  0  0  0  0  0  0  0  0  0
   -0.5731    3.1465   -3.2519 H   0  0  0  0  0  0  0  0  0  0  0  0
   -0.0663    1.6308   -1.3751 H   0  0  0  0  0  0  0  0  0  0  0  0
    2.5723    0.4408   -1.2110 H   0  0  0  0  0  0  0  0  0  0  0  0
    3.9040   -0.6945   -1.4524 H   0  0  0  0  0  0  0  0  0  0  0  0
    5.8835    0.8510    1.0969 H   0  0  0  0  0  0  0  0  0  0  0  0
    5.8619   -0.1991   -0.3129 H   0  0  0  0  0  0  0  0  0  0  0  0
    4.6778   -1.6041    1.0910 H   0  0  0  0  0  0  0  0  0  0  0  0
    3.6403   -0.8010    2.2700 H   0  0  0  0  0  0  0  0  0  0  0  0
  1  2  3  0
  2  3  1  0
  3  4  1  0
  4  5  1  0
  5  6  1  0
  6  7  2  0
  7  8  1  0
  8  9  1  0
  9 10  2  0
 10 11  1  0
 11 12  1  0
 12 13  1  0
 13 14  2  0
 14 15  1  0
 15 16  1  0
 11 17  2  0
 17 18  1  0
 18 19  2  0
 19 20  1  0
 20 21  2  0
 21 22  1  0
 22 23  2  0
  8 24  2  0
  4 25  1  0
 25 26  1  0
 26 27  1  0
 27 28  1  0
 28 29  1  0
 28 30  1  0
 28 31  1  0
 26 32  1  0
 32  4  1  0
 24  5  1  0
 23  9  1  0
 16 12  2  0
 23 18  1  0
  3 33  1  0
  3 34  1  0
  6 35  1  0
  7 36  1  0
 13 37  1  0
 15 38  1  0
 17 39  1  0
 20 40  1  0
 21 41  1  0
 22 42  1  0
 25 43  1  0
 25 44  1  0
 27 45  1  0
 27 46  1  0
 32 47  1  0
 32 48  1  0
M  END
$$$$
