IQTIWHPPLGNVLI-LDKKBFSKSA-N
     RDKit          3D

 58 62  0  0  0  0  0  0  0  0999 V2000
    9.2836   -0.2490   -1.6544 C   0  0  0  0  0  0  0  0  0  0  0  0
    8.3406    0.7849   -1.4102 O   0  0  0  0  0  0  0  0  0  0  0  0
    6.9861    0.3489   -1.1652 C   0  0  1  0  0  0  0  0  0  0  0  0
    6.6902   -0.2214    0.2433 C   0  0  0  0  0  0  0  0  0  0  0  0
    5.3766    0.5899    0.2646 C   0  0  2  0  0  0  0  0  0  0  0  0
    4.3033   -0.2343   -0.3149 N   0  0  0  0  0  0  0  0  0  0  0  0
    3.6965   -1.1316    0.7132 C   0  0  0  0  0  0  0  0  0  0  0  0
    2.3319   -0.8065    0.0846 C   0  0  0  0  0  0  0  0  0  0  0  0
    0.9951   -0.6546    1.2393 S   0  0  0  0  0  0  0  0  0  0  0  0
    0.6361   -1.9810    1.7078 O   0  0  0  0  0  0  0  0  0  0  0  0
    1.2809    0.3988    2.1967 O   0  0  0  0  0  0  0  0  0  0  0  0
   -0.3320   -0.0770    0.1949 C   0  0  0  0  0  0  0  0  0  0  0  0
   -1.5982    0.1398    1.0032 C   0  0  1  0  0  0  0  0  0  0  0  0
   -2.8498    0.5148    0.1708 C   0  0  0  0  0  0  0  0  0  0  0  0
   -3.6938   -0.2955    1.1979 C   0  0  1  0  0  0  0  0  0  0  0  0
   -4.7635   -1.0423    0.5984 N   0  0  0  0  0  0  0  0  0  0  0  0
   -4.9642   -2.4471    0.9436 C   0  0  0  0  0  0  0  0  0  0  0  0
   -5.7770   -0.5308   -0.2418 C   0  0  0  0  0  0  0  0  0  0  0  0
   -6.4226   -1.3951   -1.0801 N   0  0  0  0  0  0  0  0  0  0  0  0
   -7.3673   -0.9322   -1.9191 C   0  0  0  0  0  0  0  0  0  0  0  0
   -7.8049    0.3262   -2.0546 N   0  0  0  0  0  0  0  0  0  0  0  0
   -7.1809    1.1485   -1.2014 C   0  0  0  0  0  0  0  0  0  0  0  0
   -7.4472    2.4863   -1.1013 N   0  0  0  0  0  0  0  0  0  0  0  0
   -6.6740    3.0401   -0.1167 C   0  0  0  0  0  0  0  0  0  0  0  0
   -5.8942    2.0332    0.4128 C   0  0  0  0  0  0  0  0  0  0  0  0
   -6.1894    0.8221   -0.2847 C   0  0  0  0  0  0  0  0  0  0  0  0
   -2.3941   -1.1117    1.4521 C   0  0  0  0  0  0  0  0  0  0  0  0
    3.0087    0.5049   -0.3488 C   0  0  0  0  0  0  0  0  0  0  0  0
    5.9772    1.4781   -0.8466 C   0  0  0  0  0  0  0  0  0  0  0  0
    8.9919   -0.8232   -2.5384 H   0  0  0  0  0  0  0  0  0  0  0  0
   10.2607    0.2063   -1.8342 H   0  0  0  0  0  0  0  0  0  0  0  0
    9.3549   -0.9093   -0.7856 H   0  0  0  0  0  0  0  0  0  0  0  0
    6.6306   -0.3010   -1.9762 H   0  0  0  0  0  0  0  0  0  0  0  0
    7.4099    0.1048    1.0047 H   0  0  0  0  0  0  0  0  0  0  0  0
    6.6100   -1.3115    0.3021 H   0  0  0  0  0  0  0  0  0  0  0  0
    5.1492    1.0992    1.2068 H   0  0  0  0  0  0  0  0  0  0  0  0
    3.8201   -0.8065    1.7542 H   0  0  0  0  0  0  0  0  0  0  0  0
    4.0048   -2.1786    0.6361 H   0  0  0  0  0  0  0  0  0  0  0  0
    2.0719   -1.4657   -0.7540 H   0  0  0  0  0  0  0  0  0  0  0  0
   -0.4765   -0.8196   -0.5961 H   0  0  0  0  0  0  0  0  0  0  0  0
   -0.0015    0.8639   -0.2559 H   0  0  0  0  0  0  0  0  0  0  0  0
   -1.4404    0.8509    1.8270 H   0  0  0  0  0  0  0  0  0  0  0  0
   -2.8488    0.1083   -0.8487 H   0  0  0  0  0  0  0  0  0  0  0  0
   -3.0484    1.5881    0.1167 H   0  0  0  0  0  0  0  0  0  0  0  0
   -4.0212    0.2722    2.0765 H   0  0  0  0  0  0  0  0  0  0  0  0
   -6.0102   -2.6558    1.2005 H   0  0  0  0  0  0  0  0  0  0  0  0
   -4.3786   -2.7352    1.8232 H   0  0  0  0  0  0  0  0  0  0  0  0
   -4.6625   -3.0958    0.1138 H   0  0  0  0  0  0  0  0  0  0  0  0
   -7.8301   -1.6716   -2.5653 H   0  0  0  0  0  0  0  0  0  0  0  0
   -8.1337    2.9637   -1.6671 H   0  0  0  0  0  0  0  0  0  0  0  0
   -6.7520    4.0910    0.1288 H   0  0  0  0  0  0  0  0  0  0  0  0
   -5.1938    2.1592    1.2265 H   0  0  0  0  0  0  0  0  0  0  0  0
   -2.2477   -1.9808    0.7985 H   0  0  0  0  0  0  0  0  0  0  0  0
   -2.2302   -1.4194    2.4889 H   0  0  0  0  0  0  0  0  0  0  0  0
    2.7223    0.8654   -1.3416 H   0  0  0  0  0  0  0  0  0  0  0  0
    2.9255    1.3384    0.3597 H   0  0  0  0  0  0  0  0  0  0  0  0
    6.4521    2.3889   -0.4605 H   0  0  0  0  0  0  0  0  0  0  0  0
    5.3178    1.7672   -1.6711 H   0  0  0  0  0  0  0  0  0  0  0  0
  1  2  1  0
  2  3  1  0
  3  4  1  0
  4  5  1  0
  5  6  1  0
  6  7  1  0
  7  8  1  0
  8  9  1  0
  9 10  2  0
  9 11  2  0
  9 12  1  0
 12 13  1  0
 13 14  1  0
 14 15  1  0
 15 16  1  0
 16 17  1  0
 16 18  1  0
 18 19  2  0
 19 20  1  0
 20 21  2  0
 21 22  1  0
 22 23  1  0
 23 24  1  0
 24 25  2  0
 25 26  1  0
 15 27  1  0
  8 28  1  0
  5 29  1  0
 29  3  1  0
 28  6  1  0
 27 13  1  0
 26 18  1  0
 26 22  2  0
  1 30  1  0
  1 31  1  0
  1 32  1  0
  3 33  1  6
  4 34  1  0
  4 35  1  0
  5 36  1  1
  7 37  1  0
  7 38  1  0
  8 39  1  0
 12 40  1  0
 12 41  1  0
 13 42  1  1
 14 43  1  0
 14 44  1  0
 15 45  1  1
 17 46  1  0
 17 47  1  0
 17 48  1  0
 20 49  1  0
 23 50  1  0
 24 51  1  0
 25 52  1  0
 27 53  1  0
 27 54  1  0
 28 55  1  0
 28 56  1  0
 29 57  1  0
 29 58  1  0
M  END
$$$$
