JNKWGCLPFCMWJB-XYPHTWIQSA-N
     RDKit          3D

 52 55  0  0  0  0  0  0  0  0999 V2000
   -3.3706    2.9133   -1.1364 C   0  0  0  0  0  0  0  0  0  0  0  0
   -2.5263    2.5189   -0.0009 N   0  0  0  0  0  0  0  0  0  0  0  0
   -2.8758    3.3615    1.1498 C   0  0  0  0  0  0  0  0  0  0  0  0
   -2.6201    1.0644    0.3015 C   0  0  2  0  0  0  0  0  0  0  0  0
   -1.7547    0.6738    1.5209 C   0  0  0  0  0  0  0  0  0  0  0  0
   -1.8080   -0.8210    1.8316 C   0  0  0  0  0  0  0  0  0  0  0  0
   -1.4320   -1.7142    0.6436 C   0  0  2  0  0  0  0  0  0  0  0  0
    0.0193   -1.8111    0.4845 N   0  0  0  0  0  0  0  0  0  0  0  0
    0.6755   -0.8388   -0.1809 N   0  0  0  0  0  0  0  0  0  0  0  0
    1.9693   -1.1856   -0.1524 C   0  0  0  0  0  0  0  0  0  0  0  0
    3.0248   -0.5219   -0.6837 N   0  0  0  0  0  0  0  0  0  0  0  0
    3.1205    0.7410   -1.3050 C   0  0  0  0  0  0  0  0  0  0  0  0
    4.3262    1.0881   -1.9393 C   0  0  0  0  0  0  0  0  0  0  0  0
    4.4760    2.3159   -2.5933 C   0  0  0  0  0  0  0  0  0  0  0  0
    3.4148    3.2143   -2.6245 C   0  0  0  0  0  0  0  0  0  0  0  0
    3.5934    4.7250   -3.4272 Cl  0  0  0  0  0  0  0  0  0  0  0  0
    2.2103    2.8931   -2.0090 C   0  0  0  0  0  0  0  0  0  0  0  0
    2.0674    1.6624   -1.3576 C   0  0  0  0  0  0  0  0  0  0  0  0
    2.1259   -2.4104    0.5238 C   0  0  0  0  0  0  0  0  0  0  0  0
    3.2591   -3.2468    0.8407 C   0  0  0  0  0  0  0  0  0  0  0  0
    4.4106   -2.9877    0.5078 O   0  0  0  0  0  0  0  0  0  0  0  0
    2.9197   -4.3894    1.5642 N   0  0  0  0  0  0  0  0  0  0  0  0
    1.6300   -4.7215    1.9599 C   0  0  0  0  0  0  0  0  0  0  0  0
    0.5648   -3.9488    1.6674 C   0  0  0  0  0  0  0  0  0  0  0  0
    0.8642   -2.7832    0.9303 C   0  0  0  0  0  0  0  0  0  0  0  0
   -2.1538   -1.3051   -0.6553 C   0  0  1  0  0  0  0  0  0  0  0  0
   -3.5345   -1.8314   -0.6171 C   0  0  0  0  0  0  0  0  0  0  0  0
   -4.6133   -2.2526   -0.5531 N   0  0  0  0  0  0  0  0  0  0  0  0
   -2.1904    0.2112   -0.9168 C   0  0  0  0  0  0  0  0  0  0  0  0
   -3.3334    3.9982   -1.2924 H   0  0  0  0  0  0  0  0  0  0  0  0
   -4.4177    2.6262   -0.9884 H   0  0  0  0  0  0  0  0  0  0  0  0
   -3.0108    2.4795   -2.0739 H   0  0  0  0  0  0  0  0  0  0  0  0
   -2.8701    4.4227    0.8735 H   0  0  0  0  0  0  0  0  0  0  0  0
   -3.8666    3.1192    1.5500 H   0  0  0  0  0  0  0  0  0  0  0  0
   -2.1348    3.2731    1.9499 H   0  0  0  0  0  0  0  0  0  0  0  0
   -3.6656    0.8245    0.5408 H   0  0  0  0  0  0  0  0  0  0  0  0
   -2.1029    1.1916    2.4217 H   0  0  0  0  0  0  0  0  0  0  0  0
   -0.7155    0.9859    1.3612 H   0  0  0  0  0  0  0  0  0  0  0  0
   -2.8292   -1.0680    2.1501 H   0  0  0  0  0  0  0  0  0  0  0  0
   -1.1604   -1.0334    2.6914 H   0  0  0  0  0  0  0  0  0  0  0  0
   -1.7478   -2.7351    0.8962 H   0  0  0  0  0  0  0  0  0  0  0  0
    3.9309   -0.9817   -0.6052 H   0  0  0  0  0  0  0  0  0  0  0  0
    5.1663    0.3974   -1.9340 H   0  0  0  0  0  0  0  0  0  0  0  0
    5.4191    2.5585   -3.0747 H   0  0  0  0  0  0  0  0  0  0  0  0
    1.3747    3.5875   -2.0255 H   0  0  0  0  0  0  0  0  0  0  0  0
    1.1161    1.4492   -0.8793 H   0  0  0  0  0  0  0  0  0  0  0  0
    3.6930   -4.9976    1.8038 H   0  0  0  0  0  0  0  0  0  0  0  0
    1.5296   -5.6448    2.5229 H   0  0  0  0  0  0  0  0  0  0  0  0
   -0.4356   -4.2165    1.9862 H   0  0  0  0  0  0  0  0  0  0  0  0
   -1.6591   -1.7824   -1.5126 H   0  0  0  0  0  0  0  0  0  0  0  0
   -1.2029    0.5456   -1.2553 H   0  0  0  0  0  0  0  0  0  0  0  0
   -2.8695    0.3869   -1.7604 H   0  0  0  0  0  0  0  0  0  0  0  0
  1  2  1  0
  2  3  1  0
  2  4  1  0
  4  5  1  0
  5  6  1  0
  6  7  1  0
  7  8  1  0
  8  9  1  0
  9 10  2  0
 10 11  1  0
 11 12  1  0
 12 13  2  0
 13 14  1  0
 14 15  2  0
 15 16  1  0
 15 17  1  0
 17 18  2  0
 10 19  1  0
 19 20  1  0
 20 21  2  0
 20 22  1  0
 22 23  1  0
 23 24  2  0
 24 25  1  0
  7 26  1  0
 26 27  1  0
 27 28  3  0
 26 29  1  0
 29  4  1  0
 25  8  1  0
 18 12  1  0
 25 19  2  0
  1 30  1  0
  1 31  1  0
  1 32  1  0
  3 33  1  0
  3 34  1  0
  3 35  1  0
  4 36  1  1
  5 37  1  0
  5 38  1  0
  6 39  1  0
  6 40  1  0
  7 41  1  1
 11 42  1  0
 13 43  1  0
 14 44  1  0
 17 45  1  0
 18 46  1  0
 22 47  1  0
 23 48  1  0
 24 49  1  0
 26 50  1  6
 29 51  1  0
 29 52  1  0
M  END
$$$$
