KVLFRAWTRWDEDF-IRXDYDNUSA-N
     RDKit          3D

 65 69  0  0  0  0  0  0  0  0999 V2000
    7.7815   -3.0758   -0.8327 C   0  0  0  0  0  0  0  0  0  0  0  0
    7.5406   -1.6839   -0.6663 O   0  0  0  0  0  0  0  0  0  0  0  0
    6.2389   -1.2609   -0.6891 C   0  0  0  0  0  0  0  0  0  0  0  0
    5.1366   -2.0933   -0.8846 C   0  0  0  0  0  0  0  0  0  0  0  0
    3.8370   -1.5692   -0.8773 C   0  0  0  0  0  0  0  0  0  0  0  0
    3.5876   -0.2016   -0.6733 C   0  0  0  0  0  0  0  0  0  0  0  0
    2.2016    0.3219   -0.6641 C   0  0  0  0  0  0  0  0  0  0  0  0
    1.8817    1.6447   -0.9329 C   0  0  0  0  0  0  0  0  0  0  0  0
    0.5473    2.0236   -0.8928 C   0  0  0  0  0  0  0  0  0  0  0  0
   -0.4467    1.0713   -0.5853 C   0  0  0  0  0  0  0  0  0  0  0  0
   -1.8211    1.3192   -0.5123 C   0  0  0  0  0  0  0  0  0  0  0  0
   -2.3287    2.6187   -0.6618 N   0  0  0  0  0  0  0  0  0  0  0  0
   -3.6488    2.7241   -1.3137 C   0  0  0  0  0  0  0  0  0  0  0  0
   -4.7974    2.6746   -0.2935 C   0  0  0  0  0  0  0  0  0  0  0  0
   -4.6147    3.6325    0.7624 O   0  0  0  0  0  0  0  0  0  0  0  0
   -3.3833    3.3705    1.4568 C   0  0  0  0  0  0  0  0  0  0  0  0
   -2.1567    3.4942    0.5232 C   0  0  2  0  0  0  0  0  0  0  0  0
   -1.9576    4.9432    0.0681 C   0  0  0  0  0  0  0  0  0  0  0  0
   -2.6935    0.3274   -0.2803 N   0  0  0  0  0  0  0  0  0  0  0  0
   -2.2271   -0.9096   -0.0765 C   0  0  0  0  0  0  0  0  0  0  0  0
   -3.1246   -1.9255    0.1776 N   0  0  0  0  0  0  0  0  0  0  0  0
   -4.5273   -1.5932    0.4235 C   0  0  0  0  0  0  0  0  0  0  0  0
   -5.4294   -2.8092    0.1684 C   0  0  0  0  0  0  0  0  0  0  0  0
   -4.9699   -3.9779    0.8612 O   0  0  0  0  0  0  0  0  0  0  0  0
   -3.6524   -4.3230    0.4054 C   0  0  0  0  0  0  0  0  0  0  0  0
   -2.6270   -3.2077    0.7026 C   0  0  2  0  0  0  0  0  0  0  0  0
   -2.3695   -3.1042    2.2096 C   0  0  0  0  0  0  0  0  0  0  0  0
   -0.9263   -1.1993   -0.1071 N   0  0  0  0  0  0  0  0  0  0  0  0
   -0.0536   -0.2396   -0.3594 C   0  0  0  0  0  0  0  0  0  0  0  0
    1.2343   -0.5913   -0.3902 N   0  0  0  0  0  0  0  0  0  0  0  0
    4.7108    0.6191   -0.4707 C   0  0  0  0  0  0  0  0  0  0  0  0
    6.0289    0.1116   -0.4893 C   0  0  0  0  0  0  0  0  0  0  0  0
    7.1685    1.0706   -0.2563 C   0  0  0  0  0  0  0  0  0  0  0  0
    7.1883    1.4732    1.1082 O   0  0  0  0  0  0  0  0  0  0  0  0
    7.3233   -3.6540   -0.0234 H   0  0  0  0  0  0  0  0  0  0  0  0
    7.4399   -3.4231   -1.8140 H   0  0  0  0  0  0  0  0  0  0  0  0
    8.8629   -3.2352   -0.7826 H   0  0  0  0  0  0  0  0  0  0  0  0
    5.2436   -3.1614   -1.0428 H   0  0  0  0  0  0  0  0  0  0  0  0
    3.0019   -2.2532   -1.0309 H   0  0  0  0  0  0  0  0  0  0  0  0
    2.6367    2.3785   -1.1904 H   0  0  0  0  0  0  0  0  0  0  0  0
    0.2751    3.0504   -1.1200 H   0  0  0  0  0  0  0  0  0  0  0  0
   -3.6849    3.6906   -1.8301 H   0  0  0  0  0  0  0  0  0  0  0  0
   -3.7831    1.9603   -2.0892 H   0  0  0  0  0  0  0  0  0  0  0  0
   -4.9100    1.6805    0.1497 H   0  0  0  0  0  0  0  0  0  0  0  0
   -5.7407    2.9144   -0.7945 H   0  0  0  0  0  0  0  0  0  0  0  0
   -3.4372    2.3705    1.9030 H   0  0  0  0  0  0  0  0  0  0  0  0
   -3.3069    4.0902    2.2779 H   0  0  0  0  0  0  0  0  0  0  0  0
   -1.2628    3.2120    1.0941 H   0  0  0  0  0  0  0  0  0  0  0  0
   -2.8410    5.3444   -0.4392 H   0  0  0  0  0  0  0  0  0  0  0  0
   -1.1136    5.0220   -0.6247 H   0  0  0  0  0  0  0  0  0  0  0  0
   -1.7476    5.5882    0.9275 H   0  0  0  0  0  0  0  0  0  0  0  0
   -4.6385   -1.2669    1.4646 H   0  0  0  0  0  0  0  0  0  0  0  0
   -4.8807   -0.7835   -0.2257 H   0  0  0  0  0  0  0  0  0  0  0  0
   -6.4452   -2.5927    0.5147 H   0  0  0  0  0  0  0  0  0  0  0  0
   -5.4883   -3.0324   -0.9036 H   0  0  0  0  0  0  0  0  0  0  0  0
   -3.3606   -5.2543    0.9029 H   0  0  0  0  0  0  0  0  0  0  0  0
   -3.6953   -4.5289   -0.6714 H   0  0  0  0  0  0  0  0  0  0  0  0
   -1.6948   -3.5031    0.2048 H   0  0  0  0  0  0  0  0  0  0  0  0
   -3.2805   -2.8544    2.7633 H   0  0  0  0  0  0  0  0  0  0  0  0
   -1.9895   -4.0539    2.6009 H   0  0  0  0  0  0  0  0  0  0  0  0
   -1.6261   -2.3324    2.4337 H   0  0  0  0  0  0  0  0  0  0  0  0
    4.5848    1.6821   -0.2687 H   0  0  0  0  0  0  0  0  0  0  0  0
    7.0422    1.9621   -0.8807 H   0  0  0  0  0  0  0  0  0  0  0  0
    8.1441    0.6427   -0.5063 H   0  0  0  0  0  0  0  0  0  0  0  0
    7.0446    0.6653    1.6324 H   0  0  0  0  0  0  0  0  0  0  0  0
  1  2  1  0
  2  3  1  0
  3  4  2  0
  4  5  1  0
  5  6  2  0
  6  7  1  0
  7  8  2  0
  8  9  1  0
  9 10  2  0
 10 11  1  0
 11 12  1  0
 12 13  1  0
 13 14  1  0
 14 15  1  0
 15 16  1  0
 16 17  1  0
 17 18  1  0
 11 19  2  0
 19 20  1  0
 20 21  1  0
 21 22  1  0
 22 23  1  0
 23 24  1  0
 24 25  1  0
 25 26  1  0
 26 27  1  0
 20 28  2  0
 28 29  1  0
 29 30  2  0
  6 31  1  0
 31 32  2  0
 32 33  1  0
 33 34  1  0
 32  3  1  0
 30  7  1  0
 29 10  1  0
 17 12  1  0
 26 21  1  0
  1 35  1  0
  1 36  1  0
  1 37  1  0
  4 38  1  0
  5 39  1  0
  8 40  1  0
  9 41  1  0
 13 42  1  0
 13 43  1  0
 14 44  1  0
 14 45  1  0
 16 46  1  0
 16 47  1  0
 17 48  1  1
 18 49  1  0
 18 50  1  0
 18 51  1  0
 22 52  1  0
 22 53  1  0
 23 54  1  0
 23 55  1  0
 25 56  1  0
 25 57  1  0
 26 58  1  6
 27 59  1  0
 27 60  1  0
 27 61  1  0
 31 62  1  0
 33 63  1  0
 33 64  1  0
 34 65  1  0
M  END
$$$$
