KWQUTYNOCXTVHR-UHFFFAOYSA-N
     RDKit          3D

 72 75  0  0  0  0  0  0  0  0999 V2000
   -2.8753   -1.2504   -3.2547 C   0  0  0  0  0  0  0  0  0  0  0  0
   -3.7675   -2.3368   -2.6715 C   0  0  0  0  0  0  0  0  0  0  0  0
   -3.7309   -2.4028   -1.1419 C   0  0  0  0  0  0  0  0  0  0  0  0
   -4.3908   -1.2253   -0.4704 C   0  0  0  0  0  0  0  0  0  0  0  0
   -3.6629   -0.1165    0.0189 C   0  0  0  0  0  0  0  0  0  0  0  0
   -2.3043   -0.1889   -0.1630 O   0  0  0  0  0  0  0  0  0  0  0  0
   -1.5085    0.9216    0.2459 C   0  0  0  0  0  0  0  0  0  0  0  0
   -0.0495    0.6297   -0.1019 C   0  0  0  0  0  0  0  0  0  0  0  0
    0.4917   -0.5866    0.6596 C   0  0  0  0  0  0  0  0  0  0  0  0
    1.9511   -0.8768    0.3139 C   0  0  0  0  0  0  0  0  0  0  0  0
    2.7518    0.2252    0.7403 O   0  0  0  0  0  0  0  0  0  0  0  0
    4.0914    0.1576    0.4782 C   0  0  0  0  0  0  0  0  0  0  0  0
    4.7592   -0.9036   -0.1243 C   0  0  0  0  0  0  0  0  0  0  0  0
    6.1444   -0.8423   -0.3379 C   0  0  0  0  0  0  0  0  0  0  0  0
    6.8985    0.2818    0.0379 C   0  0  0  0  0  0  0  0  0  0  0  0
    8.4277    0.3695   -0.1766 C   0  0  0  0  0  0  0  0  0  0  0  0
    8.9615   -0.7432   -1.1118 C   0  0  0  0  0  0  0  0  0  0  0  0
    8.7825    1.7181   -0.8476 C   0  0  0  0  0  0  0  0  0  0  0  0
    9.0968    0.2507    1.2155 C   0  0  0  0  0  0  0  0  0  0  0  0
   10.5989    0.3179    1.1892 C   0  0  0  0  0  0  0  0  0  0  0  0
   11.3624   -0.6133    0.9973 O   0  0  0  0  0  0  0  0  0  0  0  0
   11.0724    1.5617    1.3925 O   0  0  0  0  0  0  0  0  0  0  0  0
    6.2052    1.3362    0.6599 C   0  0  0  0  0  0  0  0  0  0  0  0
    4.8237    1.2743    0.8729 C   0  0  0  0  0  0  0  0  0  0  0  0
   -4.3144    0.9560    0.6435 C   0  0  0  0  0  0  0  0  0  0  0  0
   -5.7091    0.9748    0.7979 C   0  0  0  0  0  0  0  0  0  0  0  0
   -6.4569   -0.1067    0.3045 C   0  0  0  0  0  0  0  0  0  0  0  0
   -7.8305   -0.4937    0.2458 C   0  0  0  0  0  0  0  0  0  0  0  0
   -9.0028    0.2327    0.7284 C   0  0  0  0  0  0  0  0  0  0  0  0
  -10.0309   -0.4515    1.3929 C   0  0  0  0  0  0  0  0  0  0  0  0
  -11.1503    0.2359    1.8674 C   0  0  0  0  0  0  0  0  0  0  0  0
  -11.2558    1.6121    1.6765 C   0  0  0  0  0  0  0  0  0  0  0  0
  -10.2467    2.3015    1.0063 C   0  0  0  0  0  0  0  0  0  0  0  0
   -9.1257    1.6152    0.5314 C   0  0  0  0  0  0  0  0  0  0  0  0
   -7.9554   -1.7002   -0.3330 N   0  0  0  0  0  0  0  0  0  0  0  0
   -6.6795   -2.0983   -0.6772 O   0  0  0  0  0  0  0  0  0  0  0  0
   -5.7801   -1.1527   -0.2945 C   0  0  0  0  0  0  0  0  0  0  0  0
   -3.2340   -0.2515   -2.9891 H   0  0  0  0  0  0  0  0  0  0  0  0
   -1.8445   -1.3559   -2.9012 H   0  0  0  0  0  0  0  0  0  0  0  0
   -2.8663   -1.3191   -4.3473 H   0  0  0  0  0  0  0  0  0  0  0  0
   -4.7948   -2.1906   -3.0262 H   0  0  0  0  0  0  0  0  0  0  0  0
   -3.4309   -3.3037   -3.0658 H   0  0  0  0  0  0  0  0  0  0  0  0
   -4.2556   -3.3132   -0.8229 H   0  0  0  0  0  0  0  0  0  0  0  0
   -2.6999   -2.5299   -0.7904 H   0  0  0  0  0  0  0  0  0  0  0  0
   -1.8222    1.8241   -0.2921 H   0  0  0  0  0  0  0  0  0  0  0  0
   -1.6015    1.0805    1.3267 H   0  0  0  0  0  0  0  0  0  0  0  0
    0.5525    1.5166    0.1256 H   0  0  0  0  0  0  0  0  0  0  0  0
    0.0330    0.4372   -1.1787 H   0  0  0  0  0  0  0  0  0  0  0  0
    0.4060   -0.3975    1.7367 H   0  0  0  0  0  0  0  0  0  0  0  0
   -0.1091   -1.4735    0.4280 H   0  0  0  0  0  0  0  0  0  0  0  0
    2.0474   -1.0256   -0.7685 H   0  0  0  0  0  0  0  0  0  0  0  0
    2.2614   -1.7862    0.8422 H   0  0  0  0  0  0  0  0  0  0  0  0
    4.2383   -1.8009   -0.4413 H   0  0  0  0  0  0  0  0  0  0  0  0
    6.6098   -1.7054   -0.8067 H   0  0  0  0  0  0  0  0  0  0  0  0
    8.4277   -0.7493   -2.0699 H   0  0  0  0  0  0  0  0  0  0  0  0
    8.8610   -1.7360   -0.6587 H   0  0  0  0  0  0  0  0  0  0  0  0
   10.0231   -0.6031   -1.3445 H   0  0  0  0  0  0  0  0  0  0  0  0
    8.6013    2.5726   -0.1860 H   0  0  0  0  0  0  0  0  0  0  0  0
    8.1917    1.8726   -1.7588 H   0  0  0  0  0  0  0  0  0  0  0  0
    9.8397    1.7590   -1.1352 H   0  0  0  0  0  0  0  0  0  0  0  0
    8.8257   -0.6987    1.6979 H   0  0  0  0  0  0  0  0  0  0  0  0
    8.7403    1.0314    1.9013 H   0  0  0  0  0  0  0  0  0  0  0  0
   12.0463    1.4561    1.3524 H   0  0  0  0  0  0  0  0  0  0  0  0
    6.7297    2.2273    0.9976 H   0  0  0  0  0  0  0  0  0  0  0  0
    4.3168    2.1076    1.3534 H   0  0  0  0  0  0  0  0  0  0  0  0
   -3.7620    1.8057    1.0338 H   0  0  0  0  0  0  0  0  0  0  0  0
   -6.1901    1.8102    1.2980 H   0  0  0  0  0  0  0  0  0  0  0  0
   -9.9639   -1.5272    1.5473 H   0  0  0  0  0  0  0  0  0  0  0  0
  -11.9399   -0.3052    2.3827 H   0  0  0  0  0  0  0  0  0  0  0  0
  -12.1289    2.1458    2.0433 H   0  0  0  0  0  0  0  0  0  0  0  0
  -10.3358    3.3730    0.8463 H   0  0  0  0  0  0  0  0  0  0  0  0
   -8.3635    2.1699   -0.0097 H   0  0  0  0  0  0  0  0  0  0  0  0
  1  2  1  0
  2  3  1  0
  3  4  1  0
  4  5  2  0
  5  6  1  0
  6  7  1  0
  7  8  1  0
  8  9  1  0
  9 10  1  0
 10 11  1  0
 11 12  1  0
 12 13  2  0
 13 14  1  0
 14 15  2  0
 15 16  1  0
 16 17  1  0
 16 18  1  0
 16 19  1  0
 19 20  1  0
 20 21  2  0
 20 22  1  0
 15 23  1  0
 23 24  2  0
  5 25  1  0
 25 26  2  0
 26 27  1  0
 27 28  1  0
 28 29  1  0
 29 30  2  0
 30 31  1  0
 31 32  2  0
 32 33  1  0
 33 34  2  0
 28 35  2  0
 35 36  1  0
 36 37  1  0
 37  4  1  0
 24 12  1  0
 37 27  2  0
 34 29  1  0
  1 38  1  0
  1 39  1  0
  1 40  1  0
  2 41  1  0
  2 42  1  0
  3 43  1  0
  3 44  1  0
  7 45  1  0
  7 46  1  0
  8 47  1  0
  8 48  1  0
  9 49  1  0
  9 50  1  0
 10 51  1  0
 10 52  1  0
 13 53  1  0
 14 54  1  0
 17 55  1  0
 17 56  1  0
 17 57  1  0
 18 58  1  0
 18 59  1  0
 18 60  1  0
 19 61  1  0
 19 62  1  0
 22 63  1  0
 23 64  1  0
 24 65  1  0
 25 66  1  0
 26 67  1  0
 30 68  1  0
 31 69  1  0
 32 70  1  0
 33 71  1  0
 34 72  1  0
M  END
$$$$
