MCHYSTQTMONBPK-UHFFFAOYSA-N
     RDKit          3D

 67 70  0  0  0  0  0  0  0  0999 V2000
    5.9050   -2.0031    0.9993 C   0  0  0  0  0  0  0  0  0  0  0  0
    4.6530   -2.2375    0.2768 N   0  0  0  0  0  0  0  0  0  0  0  0
    4.7706   -3.4492   -0.5387 C   0  0  0  0  0  0  0  0  0  0  0  0
    4.2958   -1.0809   -0.5768 C   0  0  0  0  0  0  0  0  0  0  0  0
    3.7664    0.1418    0.2100 C   0  0  0  0  0  0  0  0  0  0  0  0
    3.5121    1.2944   -0.6827 N   0  0  0  0  0  0  0  0  0  0  0  0
    4.6695    2.0632   -1.1238 C   0  0  0  0  0  0  0  0  0  0  0  0
    2.3377    1.9996   -0.3892 C   0  0  0  0  0  0  0  0  0  0  0  0
    2.3735    3.2052    0.3267 C   0  0  0  0  0  0  0  0  0  0  0  0
    1.2025    3.8996    0.6559 C   0  0  0  0  0  0  0  0  0  0  0  0
   -0.0564    3.4136    0.2918 C   0  0  0  0  0  0  0  0  0  0  0  0
   -0.0963    2.2050   -0.4061 C   0  0  0  0  0  0  0  0  0  0  0  0
    1.0765    1.5073   -0.7735 C   0  0  0  0  0  0  0  0  0  0  0  0
    0.9144    0.2588   -1.6028 C   0  0  0  0  0  0  0  0  0  0  0  0
    0.6195   -0.8493   -0.7555 O   0  0  0  0  0  0  0  0  0  0  0  0
    0.3470   -2.0153   -1.5179 C   0  0  0  0  0  0  0  0  0  0  0  0
    0.1846   -3.1587   -0.5683 C   0  0  0  0  0  0  0  0  0  0  0  0
   -0.9431   -3.8385   -0.2955 C   0  0  0  0  0  0  0  0  0  0  0  0
   -2.3188   -3.5526   -0.8184 C   0  0  0  0  0  0  0  0  0  0  0  0
   -3.2697   -3.7017    0.2358 O   0  0  0  0  0  0  0  0  0  0  0  0
   -3.3461   -2.5601    1.0957 C   0  0  0  0  0  0  0  0  0  0  0  0
   -4.2314   -1.4738    0.5313 C   0  0  0  0  0  0  0  0  0  0  0  0
   -5.4331   -1.7814   -0.1147 C   0  0  0  0  0  0  0  0  0  0  0  0
   -6.2558   -0.7636   -0.5918 C   0  0  0  0  0  0  0  0  0  0  0  0
   -5.8952    0.5751   -0.4101 C   0  0  0  0  0  0  0  0  0  0  0  0
   -4.7061    0.9251    0.2526 C   0  0  0  0  0  0  0  0  0  0  0  0
   -3.8833   -0.1243    0.7082 C   0  0  0  0  0  0  0  0  0  0  0  0
   -4.3157    2.3308    0.4821 C   0  0  0  0  0  0  0  0  0  0  0  0
   -5.2233    3.3316    0.7554 C   0  0  0  0  0  0  0  0  0  0  0  0
   -4.6926    4.5748    0.9932 C   0  0  0  0  0  0  0  0  0  0  0  0
   -3.3753    4.8399    0.9706 N   0  0  0  0  0  0  0  0  0  0  0  0
   -2.5535    3.8195    0.6809 C   0  0  0  0  0  0  0  0  0  0  0  0
   -2.9894    2.5767    0.4420 N   0  0  0  0  0  0  0  0  0  0  0  0
   -1.1957    4.1278    0.6730 N   0  0  0  0  0  0  0  0  0  0  0  0
    6.7466   -1.8245    0.3199 H   0  0  0  0  0  0  0  0  0  0  0  0
    6.1522   -2.8658    1.6303 H   0  0  0  0  0  0  0  0  0  0  0  0
    5.8214   -1.1464    1.6764 H   0  0  0  0  0  0  0  0  0  0  0  0
    5.0176   -4.3148    0.0885 H   0  0  0  0  0  0  0  0  0  0  0  0
    3.8152   -3.6790   -1.0231 H   0  0  0  0  0  0  0  0  0  0  0  0
    5.5392   -3.3540   -1.3146 H   0  0  0  0  0  0  0  0  0  0  0  0
    3.5002   -1.3820   -1.2705 H   0  0  0  0  0  0  0  0  0  0  0  0
    5.1507   -0.7999   -1.2048 H   0  0  0  0  0  0  0  0  0  0  0  0
    4.4806    0.4543    0.9794 H   0  0  0  0  0  0  0  0  0  0  0  0
    2.8561   -0.1638    0.7413 H   0  0  0  0  0  0  0  0  0  0  0  0
    4.3838    2.8156   -1.8672 H   0  0  0  0  0  0  0  0  0  0  0  0
    5.1638    2.5613   -0.2834 H   0  0  0  0  0  0  0  0  0  0  0  0
    5.4057    1.4082   -1.6012 H   0  0  0  0  0  0  0  0  0  0  0  0
    3.3207    3.6125    0.6686 H   0  0  0  0  0  0  0  0  0  0  0  0
    1.2899    4.8221    1.2236 H   0  0  0  0  0  0  0  0  0  0  0  0
   -1.0516    1.7828   -0.7078 H   0  0  0  0  0  0  0  0  0  0  0  0
    1.8133    0.0543   -2.1944 H   0  0  0  0  0  0  0  0  0  0  0  0
    0.0952    0.4074   -2.3181 H   0  0  0  0  0  0  0  0  0  0  0  0
   -0.5420   -1.8553   -2.1343 H   0  0  0  0  0  0  0  0  0  0  0  0
    1.1885   -2.2329   -2.1861 H   0  0  0  0  0  0  0  0  0  0  0  0
    1.1007   -3.4619   -0.0633 H   0  0  0  0  0  0  0  0  0  0  0  0
   -0.8793   -4.6717    0.4030 H   0  0  0  0  0  0  0  0  0  0  0  0
   -2.5637   -4.3075   -1.5742 H   0  0  0  0  0  0  0  0  0  0  0  0
   -2.4171   -2.5693   -1.2880 H   0  0  0  0  0  0  0  0  0  0  0  0
   -3.7930   -2.8984    2.0382 H   0  0  0  0  0  0  0  0  0  0  0  0
   -2.3432   -2.1845    1.3315 H   0  0  0  0  0  0  0  0  0  0  0  0
   -5.7273   -2.8207   -0.2503 H   0  0  0  0  0  0  0  0  0  0  0  0
   -7.1807   -1.0126   -1.1055 H   0  0  0  0  0  0  0  0  0  0  0  0
   -6.5533    1.3428   -0.8099 H   0  0  0  0  0  0  0  0  0  0  0  0
   -2.9516    0.1203    1.2214 H   0  0  0  0  0  0  0  0  0  0  0  0
   -6.2886    3.1592    0.8107 H   0  0  0  0  0  0  0  0  0  0  0  0
   -5.3317    5.4211    1.2266 H   0  0  0  0  0  0  0  0  0  0  0  0
   -1.0659    5.0831    0.9703 H   0  0  0  0  0  0  0  0  0  0  0  0
  1  2  1  0
  2  3  1  0
  2  4  1  0
  4  5  1  0
  5  6  1  0
  6  7  1  0
  6  8  1  0
  8  9  2  0
  9 10  1  0
 10 11  2  0
 11 12  1  0
 12 13  2  0
 13 14  1  0
 14 15  1  0
 15 16  1  0
 16 17  1  0
 17 18  2  3
 18 19  1  0
 19 20  1  0
 20 21  1  0
 21 22  1  0
 22 23  2  0
 23 24  1  0
 24 25  2  0
 25 26  1  0
 26 27  2  0
 26 28  1  0
 28 29  2  0
 29 30  1  0
 30 31  2  0
 31 32  1  0
 32 33  2  0
 32 34  1  0
 13  8  1  0
 27 22  1  0
 33 28  1  0
 34 11  1  0
  1 35  1  0
  1 36  1  0
  1 37  1  0
  3 38  1  0
  3 39  1  0
  3 40  1  0
  4 41  1  0
  4 42  1  0
  5 43  1  0
  5 44  1  0
  7 45  1  0
  7 46  1  0
  7 47  1  0
  9 48  1  0
 10 49  1  0
 12 50  1  0
 14 51  1  0
 14 52  1  0
 16 53  1  0
 16 54  1  0
 17 55  1  0
 18 56  1  0
 19 57  1  0
 19 58  1  0
 21 59  1  0
 21 60  1  0
 23 61  1  0
 24 62  1  0
 25 63  1  0
 27 64  1  0
 29 65  1  0
 30 66  1  0
 34 67  1  0
M  END
$$$$
