MSKMVINDTCVTEK-UHFFFAOYSA-N
     RDKit          3D

 36 38  0  0  0  0  0  0  0  0999 V2000
   -2.6207    0.6005   -2.1022 C   0  0  0  0  0  0  0  0  0  0  0  0
   -2.4668   -0.5858   -1.1616 C   0  0  0  0  0  0  0  0  0  0  0  0
   -2.5440   -0.1719    0.2921 C   0  0  0  0  0  0  0  0  0  0  0  0
   -3.8164   -0.0733    0.8858 C   0  0  0  0  0  0  0  0  0  0  0  0
   -3.9524    0.3253    2.2103 C   0  0  0  0  0  0  0  0  0  0  0  0
   -5.2124    0.3992    2.7255 O   0  0  0  0  0  0  0  0  0  0  0  0
   -2.8384    0.6381    2.9748 C   0  0  0  0  0  0  0  0  0  0  0  0
   -1.5702    0.5493    2.3981 C   0  0  0  0  0  0  0  0  0  0  0  0
   -1.3995    0.1474    1.0582 C   0  0  0  0  0  0  0  0  0  0  0  0
   -0.0346    0.0747    0.5171 C   0  0  0  0  0  0  0  0  0  0  0  0
    0.5747    1.2161   -0.0253 C   0  0  0  0  0  0  0  0  0  0  0  0
    1.8777    1.1766   -0.5416 C   0  0  0  0  0  0  0  0  0  0  0  0
    2.5885   -0.0371   -0.5091 C   0  0  0  0  0  0  0  0  0  0  0  0
    3.8812   -0.4834   -0.9143 C   0  0  0  0  0  0  0  0  0  0  0  0
    4.9380    0.3129   -1.5526 C   0  0  0  0  0  0  0  0  0  0  0  0
    6.0777   -0.3911   -1.8302 N   0  0  0  0  0  0  0  0  0  0  0  0
    4.8424    1.5048   -1.8267 O   0  0  0  0  0  0  0  0  0  0  0  0
    4.0564   -1.7957   -0.6380 N   0  0  0  0  0  0  0  0  0  0  0  0
    2.8941   -2.1619   -0.0706 N   0  0  0  0  0  0  0  0  0  0  0  0
    1.9740   -1.1569    0.0363 C   0  0  0  0  0  0  0  0  0  0  0  0
    0.6752   -1.1395    0.5578 C   0  0  0  0  0  0  0  0  0  0  0  0
   -3.5846    1.1000   -1.9577 H   0  0  0  0  0  0  0  0  0  0  0  0
   -2.5667    0.2660   -3.1431 H   0  0  0  0  0  0  0  0  0  0  0  0
   -1.8325    1.3431   -1.9443 H   0  0  0  0  0  0  0  0  0  0  0  0
   -1.5284   -1.1091   -1.3724 H   0  0  0  0  0  0  0  0  0  0  0  0
   -3.2570   -1.3186   -1.3697 H   0  0  0  0  0  0  0  0  0  0  0  0
   -4.7104   -0.3048    0.3111 H   0  0  0  0  0  0  0  0  0  0  0  0
   -5.1533    0.7034    3.6458 H   0  0  0  0  0  0  0  0  0  0  0  0
   -2.9311    0.9518    4.0093 H   0  0  0  0  0  0  0  0  0  0  0  0
   -0.6984    0.7983    3.0013 H   0  0  0  0  0  0  0  0  0  0  0  0
    0.0290    2.1582   -0.0540 H   0  0  0  0  0  0  0  0  0  0  0  0
    2.3288    2.0730   -0.9606 H   0  0  0  0  0  0  0  0  0  0  0  0
    6.8584    0.0704   -2.2687 H   0  0  0  0  0  0  0  0  0  0  0  0
    6.1118   -1.3741   -1.5859 H   0  0  0  0  0  0  0  0  0  0  0  0
    2.7867   -3.1250    0.2271 H   0  0  0  0  0  0  0  0  0  0  0  0
    0.2232   -2.0335    0.9780 H   0  0  0  0  0  0  0  0  0  0  0  0
  1  2  1  0
  2  3  1  0
  3  4  2  0
  4  5  1  0
  5  6  1  0
  5  7  2  0
  7  8  1  0
  8  9  2  0
  9 10  1  0
 10 11  2  0
 11 12  1  0
 12 13  2  0
 13 14  1  0
 14 15  1  0
 15 16  1  0
 15 17  2  0
 14 18  2  0
 18 19  1  0
 19 20  1  0
 20 21  2  0
  9  3  1  0
 21 10  1  0
 20 13  1  0
  1 22  1  0
  1 23  1  0
  1 24  1  0
  2 25  1  0
  2 26  1  0
  4 27  1  0
  6 28  1  0
  7 29  1  0
  8 30  1  0
 11 31  1  0
 12 32  1  0
 16 33  1  0
 16 34  1  0
 19 35  1  0
 21 36  1  0
M  END
$$$$
