MSLIBSZZLAWHQM-UHFFFAOYSA-N
     RDKit          3D

 38 40  0  0  0  0  0  0  0  0999 V2000
    4.5007    2.6720   -3.1282 C   0  0  0  0  0  0  0  0  0  0  0  0
    4.4738    1.4668   -2.5445 C   0  0  0  0  0  0  0  0  0  0  0  0
    3.1969    0.9094   -2.0099 C   0  0  0  0  0  0  0  0  0  0  0  0
    2.1523    1.5437   -2.0795 O   0  0  0  0  0  0  0  0  0  0  0  0
    3.3708   -0.3532   -1.4784 N   0  0  0  0  0  0  0  0  0  0  0  0
    2.3909   -1.1617   -0.8643 C   0  0  0  0  0  0  0  0  0  0  0  0
    2.7676   -2.4458   -0.4796 C   0  0  0  0  0  0  0  0  0  0  0  0
    1.8423   -3.2986    0.1293 C   0  0  0  0  0  0  0  0  0  0  0  0
    0.5344   -2.9088    0.3701 C   0  0  0  0  0  0  0  0  0  0  0  0
   -0.2853   -3.7878    0.9624 N   0  0  0  0  0  0  0  0  0  0  0  0
   -1.5602   -3.4082    1.1979 C   0  0  0  0  0  0  0  0  0  0  0  0
   -2.0773   -2.1666    0.8712 C   0  0  0  0  0  0  0  0  0  0  0  0
   -3.4671   -1.9296    1.1138 C   0  0  0  0  0  0  0  0  0  0  0  0
   -4.6010   -1.7956    1.3248 N   0  0  0  0  0  0  0  0  0  0  0  0
   -1.2252   -1.2367    0.2549 C   0  0  0  0  0  0  0  0  0  0  0  0
   -1.6641    0.0666   -0.0851 N   0  0  0  0  0  0  0  0  0  0  0  0
   -2.2678    1.0593    0.7093 C   0  0  0  0  0  0  0  0  0  0  0  0
   -2.9413    2.1155    0.0784 C   0  0  0  0  0  0  0  0  0  0  0  0
   -3.5918    3.1035    0.8228 C   0  0  0  0  0  0  0  0  0  0  0  0
   -3.5829    3.0451    2.2139 C   0  0  0  0  0  0  0  0  0  0  0  0
   -2.9226    1.9976    2.8499 C   0  0  0  0  0  0  0  0  0  0  0  0
   -2.9029    1.9136    4.7395 Br  0  0  0  0  0  0  0  0  0  0  0  0
   -2.2721    1.0090    2.1084 C   0  0  0  0  0  0  0  0  0  0  0  0
    0.1256   -1.6122   -0.0093 C   0  0  0  0  0  0  0  0  0  0  0  0
    1.0800   -0.7523   -0.6154 C   0  0  0  0  0  0  0  0  0  0  0  0
    5.4258    3.0844   -3.5161 H   0  0  0  0  0  0  0  0  0  0  0  0
    3.6016    3.2747   -3.2309 H   0  0  0  0  0  0  0  0  0  0  0  0
    5.3823    0.8864   -2.4506 H   0  0  0  0  0  0  0  0  0  0  0  0
    4.2930   -0.7620   -1.5485 H   0  0  0  0  0  0  0  0  0  0  0  0
    3.7775   -2.8113   -0.6454 H   0  0  0  0  0  0  0  0  0  0  0  0
    2.1538   -4.2988    0.4241 H   0  0  0  0  0  0  0  0  0  0  0  0
   -2.1769   -4.1729    1.6667 H   0  0  0  0  0  0  0  0  0  0  0  0
   -1.3805    0.3858   -1.0076 H   0  0  0  0  0  0  0  0  0  0  0  0
   -2.9748    2.1728   -1.0072 H   0  0  0  0  0  0  0  0  0  0  0  0
   -4.1104    3.9126    0.3150 H   0  0  0  0  0  0  0  0  0  0  0  0
   -4.0925    3.8131    2.7891 H   0  0  0  0  0  0  0  0  0  0  0  0
   -1.7502    0.2130    2.6304 H   0  0  0  0  0  0  0  0  0  0  0  0
    0.7777    0.2575   -0.8714 H   0  0  0  0  0  0  0  0  0  0  0  0
  1  2  2  0
  2  3  1  0
  3  4  2  0
  3  5  1  0
  5  6  1  0
  6  7  2  0
  7  8  1  0
  8  9  2  0
  9 10  1  0
 10 11  2  0
 11 12  1  0
 12 13  1  0
 13 14  3  0
 12 15  2  0
 15 16  1  0
 16 17  1  0
 17 18  2  0
 18 19  1  0
 19 20  2  0
 20 21  1  0
 21 22  1  0
 21 23  2  0
 15 24  1  0
 24 25  2  0
 25  6  1  0
 24  9  1  0
 23 17  1  0
  1 26  1  0
  1 27  1  0
  2 28  1  0
  5 29  1  0
  7 30  1  0
  8 31  1  0
 11 32  1  0
 16 33  1  0
 18 34  1  0
 19 35  1  0
 20 36  1  0
 23 37  1  0
 25 38  1  0
M  END
$$$$
