OOZNMURDAKWFQS-RUZDIDTESA-N
     RDKit          3D

 60 63  0  0  0  0  0  0  0  0999 V2000
    6.5411    2.0233   -2.3769 C   0  0  0  0  0  0  0  0  0  0  0  0
    6.4496    1.1226   -1.1378 C   0  0  2  0  0  0  0  0  0  0  0  0
    7.2986    1.7865   -0.0364 C   0  0  0  0  0  0  0  0  0  0  0  0
    6.9013    2.3871    0.9494 O   0  0  0  0  0  0  0  0  0  0  0  0
    8.6302    1.6874   -0.2519 O   0  0  0  0  0  0  0  0  0  0  0  0
    6.9483   -0.2857   -1.4918 C   0  0  0  0  0  0  0  0  0  0  0  0
    6.7897   -1.2159   -0.2971 C   0  0  0  0  0  0  0  0  0  0  0  0
    5.4388   -1.0382    0.3279 C   0  0  0  0  0  0  0  0  0  0  0  0
    4.9439   -2.0023    1.2148 C   0  0  0  0  0  0  0  0  0  0  0  0
    3.6847   -1.8486    1.8049 C   0  0  0  0  0  0  0  0  0  0  0  0
    2.9083   -0.7270    1.5162 C   0  0  0  0  0  0  0  0  0  0  0  0
    1.6643   -0.4587    2.0166 O   0  0  0  0  0  0  0  0  0  0  0  0
    1.0936   -1.4233    2.8986 C   0  0  0  0  0  0  0  0  0  0  0  0
   -0.2919   -0.9490    3.3196 C   0  0  0  0  0  0  0  0  0  0  0  0
   -1.2227   -0.7565    2.1249 C   0  0  0  0  0  0  0  0  0  0  0  0
   -2.5199   -0.4435    2.6333 O   0  0  0  0  0  0  0  0  0  0  0  0
   -3.5352   -0.2672    1.7301 C   0  0  0  0  0  0  0  0  0  0  0  0
   -3.3745   -0.2814    0.3423 C   0  0  0  0  0  0  0  0  0  0  0  0
   -4.4734   -0.0891   -0.5047 C   0  0  0  0  0  0  0  0  0  0  0  0
   -5.7587    0.1189    0.0132 C   0  0  0  0  0  0  0  0  0  0  0  0
   -6.9573    0.3391   -0.8839 C   0  0  0  0  0  0  0  0  0  0  0  0
   -6.9100    1.6987   -1.6038 C   0  0  0  0  0  0  0  0  0  0  0  0
   -7.5183    1.4332   -2.9726 C   0  0  0  0  0  0  0  0  0  0  0  0
   -7.0048    0.0451   -3.3115 C   0  0  0  0  0  0  0  0  0  0  0  0
   -7.1276   -0.7161   -1.9965 C   0  0  0  0  0  0  0  0  0  0  0  0
   -5.9164    0.1419    1.4053 C   0  0  0  0  0  0  0  0  0  0  0  0
   -4.8187   -0.0497    2.2528 C   0  0  0  0  0  0  0  0  0  0  0  0
   -5.1017   -0.0125    3.9602 Cl  0  0  0  0  0  0  0  0  0  0  0  0
    3.4076    0.2407    0.6422 C   0  0  0  0  0  0  0  0  0  0  0  0
    4.6679    0.0947    0.0614 C   0  0  0  0  0  0  0  0  0  0  0  0
    5.0591    1.0994   -0.7818 O   0  0  0  0  0  0  0  0  0  0  0  0
    6.1939    3.0378   -2.1464 H   0  0  0  0  0  0  0  0  0  0  0  0
    5.8985    1.6486   -3.1819 H   0  0  0  0  0  0  0  0  0  0  0  0
    7.5662    2.0965   -2.7558 H   0  0  0  0  0  0  0  0  0  0  0  0
    9.0171    2.1694    0.5106 H   0  0  0  0  0  0  0  0  0  0  0  0
    7.9935   -0.2832   -1.8220 H   0  0  0  0  0  0  0  0  0  0  0  0
    6.3487   -0.6829   -2.3227 H   0  0  0  0  0  0  0  0  0  0  0  0
    6.9226   -2.2523   -0.6291 H   0  0  0  0  0  0  0  0  0  0  0  0
    7.5591   -1.0057    0.4552 H   0  0  0  0  0  0  0  0  0  0  0  0
    5.5357   -2.8843    1.4504 H   0  0  0  0  0  0  0  0  0  0  0  0
    3.3437   -2.6223    2.4845 H   0  0  0  0  0  0  0  0  0  0  0  0
    1.0065   -2.3939    2.3952 H   0  0  0  0  0  0  0  0  0  0  0  0
    1.7171   -1.5271    3.7946 H   0  0  0  0  0  0  0  0  0  0  0  0
   -0.2141    0.0049    3.8562 H   0  0  0  0  0  0  0  0  0  0  0  0
   -0.7318   -1.6654    4.0235 H   0  0  0  0  0  0  0  0  0  0  0  0
   -1.2652   -1.6834    1.5403 H   0  0  0  0  0  0  0  0  0  0  0  0
   -0.8580    0.0671    1.5002 H   0  0  0  0  0  0  0  0  0  0  0  0
   -2.4043   -0.4333   -0.1200 H   0  0  0  0  0  0  0  0  0  0  0  0
   -4.3098   -0.0986   -1.5808 H   0  0  0  0  0  0  0  0  0  0  0  0
   -7.8668    0.3055   -0.2682 H   0  0  0  0  0  0  0  0  0  0  0  0
   -5.8825    2.0626   -1.7259 H   0  0  0  0  0  0  0  0  0  0  0  0
   -7.4628    2.4684   -1.0551 H   0  0  0  0  0  0  0  0  0  0  0  0
   -7.2192    2.1811   -3.7122 H   0  0  0  0  0  0  0  0  0  0  0  0
   -8.6126    1.4301   -2.9082 H   0  0  0  0  0  0  0  0  0  0  0  0
   -5.9546    0.0954   -3.6217 H   0  0  0  0  0  0  0  0  0  0  0  0
   -7.5756   -0.4254   -4.1171 H   0  0  0  0  0  0  0  0  0  0  0  0
   -6.4211   -1.5506   -1.9427 H   0  0  0  0  0  0  0  0  0  0  0  0
   -8.1346   -1.1475   -1.9269 H   0  0  0  0  0  0  0  0  0  0  0  0
   -6.8995    0.3107    1.8394 H   0  0  0  0  0  0  0  0  0  0  0  0
    2.8140    1.1236    0.4193 H   0  0  0  0  0  0  0  0  0  0  0  0
  2  1  1  6
  2  3  1  0
  3  4  2  0
  3  5  1  0
  2  6  1  0
  6  7  1  0
  7  8  1  0
  8  9  2  0
  9 10  1  0
 10 11  2  0
 11 12  1  0
 12 13  1  0
 13 14  1  0
 14 15  1  0
 15 16  1  0
 16 17  1  0
 17 18  2  0
 18 19  1  0
 19 20  2  0
 20 21  1  0
 21 22  1  0
 22 23  1  0
 23 24  1  0
 24 25  1  0
 20 26  1  0
 26 27  2  0
 27 28  1  0
 11 29  1  0
 29 30  2  0
 30 31  1  0
 31  2  1  0
 30  8  1  0
 27 17  1  0
 25 21  1  0
  1 32  1  0
  1 33  1  0
  1 34  1  0
  5 35  1  0
  6 36  1  0
  6 37  1  0
  7 38  1  0
  7 39  1  0
  9 40  1  0
 10 41  1  0
 13 42  1  0
 13 43  1  0
 14 44  1  0
 14 45  1  0
 15 46  1  0
 15 47  1  0
 18 48  1  0
 19 49  1  0
 21 50  1  0
 22 51  1  0
 22 52  1  0
 23 53  1  0
 23 54  1  0
 24 55  1  0
 24 56  1  0
 25 57  1  0
 25 58  1  0
 26 59  1  0
 29 60  1  0
M  END
$$$$
