PMBVJRGBYOKWGM-XYPWUTKMSA-N
     RDKit          3D

 56 59  0  0  0  0  0  0  0  0999 V2000
    6.9788   -0.8884   -0.5444 C   0  0  0  0  0  0  0  0  0  0  0  0
    6.5573    0.5854   -0.5854 C   0  0  0  0  0  0  0  0  0  0  0  0
    7.5420    1.4277    0.2349 C   0  0  0  0  0  0  0  0  0  0  0  0
    5.1826    0.8787   -0.1579 N   0  0  0  0  0  0  0  0  0  0  0  0
    4.7788    0.3574    1.1462 C   0  0  0  0  0  0  0  0  0  0  0  0
    3.2827    0.6484    1.1654 C   0  0  0  0  0  0  0  0  0  0  0  0
    2.8682    0.6700   -0.3058 C   0  0  0  0  0  0  0  0  0  0  0  0
    1.6166   -0.5191   -0.7280 S   0  0  0  0  0  0  0  0  0  0  0  0
    1.9890   -1.7992   -0.1554 O   0  0  0  0  0  0  0  0  0  0  0  0
    1.3610   -0.3926   -2.1507 O   0  0  0  0  0  0  0  0  0  0  0  0
    0.1714    0.0775    0.1399 C   0  0  0  0  0  0  0  0  0  0  0  0
   -1.0142   -0.8369   -0.1093 C   0  0  1  0  0  0  0  0  0  0  0  0
   -2.3559   -0.3476    0.4909 C   0  0  0  0  0  0  0  0  0  0  0  0
   -3.0623   -0.9811   -0.7432 C   0  0  1  0  0  0  0  0  0  0  0  0
   -4.1614   -0.2007   -1.2378 N   0  0  0  0  0  0  0  0  0  0  0  0
   -4.2738    0.0908   -2.6645 C   0  0  0  0  0  0  0  0  0  0  0  0
   -5.2721    0.2523   -0.4924 C   0  0  0  0  0  0  0  0  0  0  0  0
   -5.9696    1.3312   -0.9571 N   0  0  0  0  0  0  0  0  0  0  0  0
   -7.0103    1.8091   -0.2506 C   0  0  0  0  0  0  0  0  0  0  0  0
   -7.5029    1.3483    0.9064 N   0  0  0  0  0  0  0  0  0  0  0  0
   -6.8238    0.2727    1.3253 C   0  0  0  0  0  0  0  0  0  0  0  0
   -7.1244   -0.4206    2.4653 N   0  0  0  0  0  0  0  0  0  0  0  0
   -6.2742   -1.4854    2.5978 C   0  0  0  0  0  0  0  0  0  0  0  0
   -5.4103   -1.4613    1.5228 C   0  0  0  0  0  0  0  0  0  0  0  0
   -5.7332   -0.3307    0.7118 C   0  0  0  0  0  0  0  0  0  0  0  0
   -1.7158   -0.7548   -1.4887 C   0  0  0  0  0  0  0  0  0  0  0  0
    4.1495    0.4035   -1.0840 C   0  0  0  0  0  0  0  0  0  0  0  0
    7.0037   -1.2804    0.4775 H   0  0  0  0  0  0  0  0  0  0  0  0
    7.9865   -1.0036   -0.9599 H   0  0  0  0  0  0  0  0  0  0  0  0
    6.3127   -1.5195   -1.1398 H   0  0  0  0  0  0  0  0  0  0  0  0
    6.6573    0.9268   -1.6245 H   0  0  0  0  0  0  0  0  0  0  0  0
    7.2776    2.4904    0.1958 H   0  0  0  0  0  0  0  0  0  0  0  0
    7.5677    1.1204    1.2858 H   0  0  0  0  0  0  0  0  0  0  0  0
    8.5573    1.3280   -0.1649 H   0  0  0  0  0  0  0  0  0  0  0  0
    4.9367   -0.7238    1.2326 H   0  0  0  0  0  0  0  0  0  0  0  0
    5.2853    0.8560    1.9779 H   0  0  0  0  0  0  0  0  0  0  0  0
    2.7472   -0.0855    1.7749 H   0  0  0  0  0  0  0  0  0  0  0  0
    3.1013    1.6372    1.6048 H   0  0  0  0  0  0  0  0  0  0  0  0
    2.4662    1.6568   -0.5667 H   0  0  0  0  0  0  0  0  0  0  0  0
    0.4142    0.1009    1.2059 H   0  0  0  0  0  0  0  0  0  0  0  0
   -0.0220    1.0980   -0.2050 H   0  0  0  0  0  0  0  0  0  0  0  0
   -0.7993   -1.8737    0.1880 H   0  0  0  0  0  0  0  0  0  0  0  0
   -2.4435    0.7441    0.5629 H   0  0  0  0  0  0  0  0  0  0  0  0
   -2.5968   -0.7805    1.4652 H   0  0  0  0  0  0  0  0  0  0  0  0
   -3.3181   -2.0416   -0.6349 H   0  0  0  0  0  0  0  0  0  0  0  0
   -4.0275    1.1393   -2.8649 H   0  0  0  0  0  0  0  0  0  0  0  0
   -3.5963   -0.5316   -3.2588 H   0  0  0  0  0  0  0  0  0  0  0  0
   -5.2814   -0.1201   -3.0434 H   0  0  0  0  0  0  0  0  0  0  0  0
   -7.5106    2.6754   -0.6721 H   0  0  0  0  0  0  0  0  0  0  0  0
   -7.8808   -0.1738    3.0868 H   0  0  0  0  0  0  0  0  0  0  0  0
   -6.3627   -2.1693    3.4314 H   0  0  0  0  0  0  0  0  0  0  0  0
   -4.6350   -2.1918    1.3386 H   0  0  0  0  0  0  0  0  0  0  0  0
   -1.6056    0.2211   -1.9779 H   0  0  0  0  0  0  0  0  0  0  0  0
   -1.4370   -1.5382   -2.1993 H   0  0  0  0  0  0  0  0  0  0  0  0
    4.2662   -0.6604   -1.3186 H   0  0  0  0  0  0  0  0  0  0  0  0
    4.1628    0.9646   -2.0245 H   0  0  0  0  0  0  0  0  0  0  0  0
  1  2  1  0
  2  3  1  0
  2  4  1  0
  4  5  1  0
  5  6  1  0
  6  7  1  0
  7  8  1  0
  8  9  2  0
  8 10  2  0
  8 11  1  0
 11 12  1  0
 12 13  1  0
 13 14  1  0
 14 15  1  0
 15 16  1  0
 15 17  1  0
 17 18  2  0
 18 19  1  0
 19 20  2  0
 20 21  1  0
 21 22  1  0
 22 23  1  0
 23 24  2  0
 24 25  1  0
 14 26  1  0
  7 27  1  0
 27  4  1  0
 26 12  1  0
 25 17  1  0
 25 21  2  0
  1 28  1  0
  1 29  1  0
  1 30  1  0
  2 31  1  0
  3 32  1  0
  3 33  1  0
  3 34  1  0
  5 35  1  0
  5 36  1  0
  6 37  1  0
  6 38  1  0
  7 39  1  0
 11 40  1  0
 11 41  1  0
 12 42  1  1
 13 43  1  0
 13 44  1  0
 14 45  1  1
 16 46  1  0
 16 47  1  0
 16 48  1  0
 19 49  1  0
 22 50  1  0
 23 51  1  0
 24 52  1  0
 26 53  1  0
 26 54  1  0
 27 55  1  0
 27 56  1  0
M  END
$$$$
