PMNFGEHMTFKKPU-GOSISDBHSA-N
     RDKit          3D

 58 61  0  0  0  0  0  0  0  0999 V2000
   -5.3308   -0.5930   -3.0332 C   0  0  0  0  0  0  0  0  0  0  0  0
   -5.9238    0.4234   -2.0652 C   0  0  0  0  0  0  0  0  0  0  0  0
   -5.8701   -0.0371   -0.5947 C   0  0  0  0  0  0  0  0  0  0  0  0
   -6.6478    0.9453    0.3049 C   0  0  0  0  0  0  0  0  0  0  0  0
   -6.7740    0.4663    1.7459 C   0  0  0  0  0  0  0  0  0  0  0  0
   -4.4972   -0.2274   -0.1318 N   0  0  0  0  0  0  0  0  0  0  0  0
   -3.5122    0.7178   -0.0272 C   0  0  0  0  0  0  0  0  0  0  0  0
   -2.3930    0.0768    0.4708 C   0  0  0  0  0  0  0  0  0  0  0  0
   -1.0733    0.6017    0.7576 C   0  0  0  0  0  0  0  0  0  0  0  0
   -0.0792   -0.2389    0.7096 N   0  0  0  0  0  0  0  0  0  0  0  0
    1.2043    0.2251    0.9485 C   0  0  0  0  0  0  0  0  0  0  0  0
    2.2179   -0.7829    0.8602 C   0  0  0  0  0  0  0  0  0  0  0  0
    2.0811   -2.1265    0.4417 C   0  0  0  0  0  0  0  0  0  0  0  0
    3.2382   -2.7967    0.4675 N   0  0  0  0  0  0  0  0  0  0  0  0
    4.1186   -1.8853    0.9190 N   0  0  0  0  0  0  0  0  0  0  0  0
    5.5077   -2.2509    1.0919 C   0  0  0  0  0  0  0  0  0  0  0  0
    6.2267   -2.5714   -0.2224 C   0  0  2  0  0  0  0  0  0  0  0  0
    7.5941   -2.9244    0.0602 O   0  0  0  0  0  0  0  0  0  0  0  0
    6.2129   -1.4036   -1.2303 C   0  0  0  0  0  0  0  0  0  0  0  0
    6.9859   -0.2524   -0.7229 N   0  0  0  0  0  0  0  0  0  0  0  0
    6.6776    0.9452   -1.5011 C   0  0  0  0  0  0  0  0  0  0  0  0
    3.5573   -0.6627    1.1661 C   0  0  0  0  0  0  0  0  0  0  0  0
    1.4567    1.5166    1.2250 C   0  0  0  0  0  0  0  0  0  0  0  0
    0.4106    2.4150    1.2963 N   0  0  0  0  0  0  0  0  0  0  0  0
    0.4654    3.7397    1.5727 N   0  0  0  0  0  0  0  0  0  0  0  0
   -0.8086    4.1300    1.5928 C   0  0  0  0  0  0  0  0  0  0  0  0
   -1.6971    3.0813    1.3087 C   0  0  0  0  0  0  0  0  0  0  0  0
   -0.8862    1.9909    1.0855 C   0  0  0  0  0  0  0  0  0  0  0  0
   -2.8164   -1.2698    0.5929 C   0  0  0  0  0  0  0  0  0  0  0  0
   -4.0928   -1.4516    0.2484 N   0  0  0  0  0  0  0  0  0  0  0  0
   -4.2589   -0.7319   -2.8641 H   0  0  0  0  0  0  0  0  0  0  0  0
   -5.4632   -0.2490   -4.0640 H   0  0  0  0  0  0  0  0  0  0  0  0
   -5.8264   -1.5634   -2.9328 H   0  0  0  0  0  0  0  0  0  0  0  0
   -5.4051    1.3813   -2.1883 H   0  0  0  0  0  0  0  0  0  0  0  0
   -6.9693    0.5936   -2.3504 H   0  0  0  0  0  0  0  0  0  0  0  0
   -6.3604   -1.0182   -0.5278 H   0  0  0  0  0  0  0  0  0  0  0  0
   -6.1721    1.9342    0.2959 H   0  0  0  0  0  0  0  0  0  0  0  0
   -7.6590    1.0785   -0.0990 H   0  0  0  0  0  0  0  0  0  0  0  0
   -7.2327   -0.5262    1.7901 H   0  0  0  0  0  0  0  0  0  0  0  0
   -5.7992    0.4192    2.2403 H   0  0  0  0  0  0  0  0  0  0  0  0
   -7.4033    1.1553    2.3173 H   0  0  0  0  0  0  0  0  0  0  0  0
   -3.6895    1.7378   -0.3338 H   0  0  0  0  0  0  0  0  0  0  0  0
    1.1847   -2.6384    0.1147 H   0  0  0  0  0  0  0  0  0  0  0  0
    6.0130   -1.4419    1.6320 H   0  0  0  0  0  0  0  0  0  0  0  0
    5.5344   -3.1202    1.7596 H   0  0  0  0  0  0  0  0  0  0  0  0
    5.7651   -3.4455   -0.6950 H   0  0  0  0  0  0  0  0  0  0  0  0
    8.0022   -2.1264    0.4422 H   0  0  0  0  0  0  0  0  0  0  0  0
    5.1785   -1.1192   -1.4530 H   0  0  0  0  0  0  0  0  0  0  0  0
    6.6722   -1.7358   -2.1692 H   0  0  0  0  0  0  0  0  0  0  0  0
    7.9781   -0.4576   -0.8599 H   0  0  0  0  0  0  0  0  0  0  0  0
    5.6249    1.2255   -1.3926 H   0  0  0  0  0  0  0  0  0  0  0  0
    7.2807    1.7809   -1.1317 H   0  0  0  0  0  0  0  0  0  0  0  0
    6.9066    0.8048   -2.5625 H   0  0  0  0  0  0  0  0  0  0  0  0
    4.1550    0.1627    1.5267 H   0  0  0  0  0  0  0  0  0  0  0  0
    2.4396    1.9255    1.4087 H   0  0  0  0  0  0  0  0  0  0  0  0
   -1.0365    5.1640    1.8188 H   0  0  0  0  0  0  0  0  0  0  0  0
   -2.7750    3.1312    1.2832 H   0  0  0  0  0  0  0  0  0  0  0  0
   -2.2369   -2.1213    0.9295 H   0  0  0  0  0  0  0  0  0  0  0  0
  1  2  1  0
  2  3  1  0
  3  4  1  0
  4  5  1  0
  3  6  1  0
  6  7  1  0
  7  8  2  0
  8  9  1  0
  9 10  2  0
 10 11  1  0
 11 12  1  0
 12 13  1  0
 13 14  2  0
 14 15  1  0
 15 16  1  0
 16 17  1  0
 17 18  1  0
 17 19  1  0
 19 20  1  0
 20 21  1  0
 15 22  1  0
 11 23  2  0
 23 24  1  0
 24 25  1  0
 25 26  2  0
 26 27  1  0
 27 28  2  0
  8 29  1  0
 29 30  2  0
 30  6  1  0
 28  9  1  0
 22 12  2  0
 28 24  1  0
  1 31  1  0
  1 32  1  0
  1 33  1  0
  2 34  1  0
  2 35  1  0
  3 36  1  0
  4 37  1  0
  4 38  1  0
  5 39  1  0
  5 40  1  0
  5 41  1  0
  7 42  1  0
 13 43  1  0
 16 44  1  0
 16 45  1  0
 17 46  1  6
 18 47  1  0
 19 48  1  0
 19 49  1  0
 20 50  1  0
 21 51  1  0
 21 52  1  0
 21 53  1  0
 22 54  1  0
 23 55  1  0
 26 56  1  0
 27 57  1  0
 29 58  1  0
M  END
$$$$
