PXCWWCGIHVDNOF-UHFFFAOYSA-N
     RDKit          3D

 63 65  0  0  0  0  0  0  0  0999 V2000
   -3.4170   -2.1351    0.0610 C   0  0  0  0  0  0  0  0  0  0  0  0
   -3.2458   -0.6484   -0.0588 C   0  0  0  0  0  0  0  0  0  0  0  0
   -2.0855   -0.0653    0.4748 C   0  0  0  0  0  0  0  0  0  0  0  0
   -1.8462    1.3094    0.3619 C   0  0  0  0  0  0  0  0  0  0  0  0
   -0.5863    1.9099    0.9339 C   0  0  0  0  0  0  0  0  0  0  0  0
    0.5998    1.4930    0.2151 N   0  0  0  0  0  0  0  0  0  0  0  0
    0.8318    1.8011   -1.1711 C   0  0  0  0  0  0  0  0  0  0  0  0
    2.1605    1.1286   -1.4764 C   0  0  0  0  0  0  0  0  0  0  0  0
    2.6927    0.7320   -0.1892 N   0  0  0  0  0  0  0  0  0  0  0  0
    3.9952    0.1865   -0.0313 C   0  0  0  0  0  0  0  0  0  0  0  0
    4.5044   -0.1687    1.2211 C   0  0  0  0  0  0  0  0  0  0  0  0
    5.7946   -0.6989    1.3619 C   0  0  0  0  0  0  0  0  0  0  0  0
    6.6207   -0.8871    0.2505 C   0  0  0  0  0  0  0  0  0  0  0  0
    8.0196   -1.4600    0.3782 C   0  0  0  0  0  0  0  0  0  0  0  0
    7.9849   -2.9107    0.8657 C   0  0  0  0  0  0  0  0  0  0  0  0
    8.9057   -0.6006    1.2837 C   0  0  0  0  0  0  0  0  0  0  0  0
    6.1183   -0.5381   -1.0062 C   0  0  0  0  0  0  0  0  0  0  0  0
    4.8267   -0.0111   -1.1432 C   0  0  0  0  0  0  0  0  0  0  0  0
    1.7198    0.9185    0.8176 C   0  0  0  0  0  0  0  0  0  0  0  0
    1.7870    0.6535    2.0074 O   0  0  0  0  0  0  0  0  0  0  0  0
   -2.7789    2.1029   -0.3158 C   0  0  0  0  0  0  0  0  0  0  0  0
   -3.9496    1.5461   -0.8558 C   0  0  0  0  0  0  0  0  0  0  0  0
   -4.9012    2.4470   -1.5867 C   0  0  0  0  0  0  0  0  0  0  0  0
   -4.2074    0.1789   -0.6614 C   0  0  0  0  0  0  0  0  0  0  0  0
   -5.3658   -0.3594   -1.1571 O   0  0  0  0  0  0  0  0  0  0  0  0
   -6.4463   -0.4877   -0.2159 C   0  0  0  0  0  0  0  0  0  0  0  0
   -6.9212   -1.9512   -0.3072 C   0  0  0  0  0  0  0  0  0  0  0  0
   -7.6115    0.3754   -0.7368 C   0  0  0  0  0  0  0  0  0  0  0  0
   -6.2210   -0.1540    1.2831 C   0  0  0  0  0  0  0  0  0  0  0  0
   -6.0830   -0.9542    2.1963 O   0  0  0  0  0  0  0  0  0  0  0  0
   -6.1751    1.1687    1.5513 O   0  0  0  0  0  0  0  0  0  0  0  0
   -2.4442   -2.6397    0.0807 H   0  0  0  0  0  0  0  0  0  0  0  0
   -3.9496   -2.3814    0.9834 H   0  0  0  0  0  0  0  0  0  0  0  0
   -3.9578   -2.5415   -0.7984 H   0  0  0  0  0  0  0  0  0  0  0  0
   -1.3465   -0.6913    0.9753 H   0  0  0  0  0  0  0  0  0  0  0  0
   -0.5052    1.6337    1.9910 H   0  0  0  0  0  0  0  0  0  0  0  0
   -0.6222    3.0053    0.8987 H   0  0  0  0  0  0  0  0  0  0  0  0
    0.0239    1.4213   -1.8040 H   0  0  0  0  0  0  0  0  0  0  0  0
    0.8988    2.8894   -1.2787 H   0  0  0  0  0  0  0  0  0  0  0  0
    2.0094    0.2316   -2.0871 H   0  0  0  0  0  0  0  0  0  0  0  0
    2.8369    1.8191   -1.9898 H   0  0  0  0  0  0  0  0  0  0  0  0
    3.9215   -0.0434    2.1276 H   0  0  0  0  0  0  0  0  0  0  0  0
    6.1405   -0.9613    2.3589 H   0  0  0  0  0  0  0  0  0  0  0  0
    8.4871   -1.4635   -0.6159 H   0  0  0  0  0  0  0  0  0  0  0  0
    7.3641   -3.5294    0.2077 H   0  0  0  0  0  0  0  0  0  0  0  0
    8.9931   -3.3386    0.8745 H   0  0  0  0  0  0  0  0  0  0  0  0
    7.5797   -2.9914    1.8806 H   0  0  0  0  0  0  0  0  0  0  0  0
    8.5523   -0.5971    2.3213 H   0  0  0  0  0  0  0  0  0  0  0  0
    8.9333    0.4384    0.9353 H   0  0  0  0  0  0  0  0  0  0  0  0
    9.9335   -0.9794    1.2856 H   0  0  0  0  0  0  0  0  0  0  0  0
    6.7273   -0.6733   -1.8971 H   0  0  0  0  0  0  0  0  0  0  0  0
    4.4958    0.2317   -2.1475 H   0  0  0  0  0  0  0  0  0  0  0  0
   -2.5917    3.1690   -0.4340 H   0  0  0  0  0  0  0  0  0  0  0  0
   -4.3544    3.2334   -2.1187 H   0  0  0  0  0  0  0  0  0  0  0  0
   -5.4738    1.9005   -2.3424 H   0  0  0  0  0  0  0  0  0  0  0  0
   -5.5900    2.9199   -0.8811 H   0  0  0  0  0  0  0  0  0  0  0  0
   -7.8352   -2.1189    0.2762 H   0  0  0  0  0  0  0  0  0  0  0  0
   -7.1128   -2.2379   -1.3469 H   0  0  0  0  0  0  0  0  0  0  0  0
   -6.1631   -2.6436    0.0707 H   0  0  0  0  0  0  0  0  0  0  0  0
   -8.5167    0.2384   -0.1324 H   0  0  0  0  0  0  0  0  0  0  0  0
   -7.3666    1.4402   -0.7148 H   0  0  0  0  0  0  0  0  0  0  0  0
   -7.8456    0.1336   -1.7794 H   0  0  0  0  0  0  0  0  0  0  0  0
   -5.9419    1.2050    2.5016 H   0  0  0  0  0  0  0  0  0  0  0  0
  1  2  1  0
  2  3  2  0
  3  4  1  0
  4  5  1  0
  5  6  1  0
  6  7  1  0
  7  8  1  0
  8  9  1  0
  9 10  1  0
 10 11  2  0
 11 12  1  0
 12 13  2  0
 13 14  1  0
 14 15  1  0
 14 16  1  0
 13 17  1  0
 17 18  2  0
  9 19  1  0
 19 20  2  0
  4 21  2  0
 21 22  1  0
 22 23  1  0
 22 24  2  0
 24 25  1  0
 25 26  1  0
 26 27  1  0
 26 28  1  0
 26 29  1  0
 29 30  2  0
 29 31  1  0
 24  2  1  0
 19  6  1  0
 18 10  1  0
  1 32  1  0
  1 33  1  0
  1 34  1  0
  3 35  1  0
  5 36  1  0
  5 37  1  0
  7 38  1  0
  7 39  1  0
  8 40  1  0
  8 41  1  0
 11 42  1  0
 12 43  1  0
 14 44  1  0
 15 45  1  0
 15 46  1  0
 15 47  1  0
 16 48  1  0
 16 49  1  0
 16 50  1  0
 17 51  1  0
 18 52  1  0
 21 53  1  0
 23 54  1  0
 23 55  1  0
 23 56  1  0
 27 57  1  0
 27 58  1  0
 27 59  1  0
 28 60  1  0
 28 61  1  0
 28 62  1  0
 31 63  1  0
M  END
$$$$
