QQRLVNGJKMMEMW-POHAHGRESA-N
     RDKit          3D

 42 45  0  0  0  0  0  0  0  0999 V2000
    1.4684    1.4108   -2.7969 C   0  0  0  0  0  0  0  0  0  0  0  0
    2.5094    1.0549   -1.7937 C   0  0  0  0  0  0  0  0  0  0  0  0
    3.9065    1.2723   -1.9441 C   0  0  0  0  0  0  0  0  0  0  0  0
    4.5425    0.8095   -0.8102 C   0  0  0  0  0  0  0  0  0  0  0  0
    5.9434    0.8120   -0.5035 C   0  0  0  0  0  0  0  0  0  0  0  0
    6.8638    1.2202   -1.1940 O   0  0  0  0  0  0  0  0  0  0  0  0
    6.1769    0.2850    0.7158 O   0  0  0  0  0  0  0  0  0  0  0  0
    3.5589    0.3156    0.0169 N   0  0  0  0  0  0  0  0  0  0  0  0
    2.3157    0.4553   -0.5524 C   0  0  0  0  0  0  0  0  0  0  0  0
    1.1130    0.0480    0.0922 C   0  0  0  0  0  0  0  0  0  0  0  0
    0.9280   -0.6177    1.2448 C   0  0  0  0  0  0  0  0  0  0  0  0
    1.9439   -1.2089    2.1913 C   0  0  0  0  0  0  0  0  0  0  0  0
    3.1530   -1.0899    2.1706 O   0  0  0  0  0  0  0  0  0  0  0  0
    1.2130   -1.9275    3.1094 N   0  0  0  0  0  0  0  0  0  0  0  0
   -0.1474   -1.8180    2.8793 C   0  0  0  0  0  0  0  0  0  0  0  0
   -1.0563   -2.4112    3.6481 N   0  0  0  0  0  0  0  0  0  0  0  0
   -2.3102   -2.1475    3.2700 C   0  0  0  0  0  0  0  0  0  0  0  0
   -2.6819   -1.3477    2.2504 N   0  0  0  0  0  0  0  0  0  0  0  0
   -1.7168   -0.7446    1.5197 C   0  0  0  0  0  0  0  0  0  0  0  0
   -2.0873    0.1579    0.5078 N   0  0  0  0  0  0  0  0  0  0  0  0
   -3.2700    0.2435   -0.2495 C   0  0  0  0  0  0  0  0  0  0  0  0
   -3.5209    1.4159   -0.9839 C   0  0  0  0  0  0  0  0  0  0  0  0
   -4.6664    1.5409   -1.7748 C   0  0  0  0  0  0  0  0  0  0  0  0
   -5.5680    0.4867   -1.8485 C   0  0  0  0  0  0  0  0  0  0  0  0
   -6.6604    0.6248   -2.6139 F   0  0  0  0  0  0  0  0  0  0  0  0
   -5.3319   -0.6899   -1.1455 C   0  0  0  0  0  0  0  0  0  0  0  0
   -6.4374   -2.0070   -1.2456 Cl  0  0  0  0  0  0  0  0  0  0  0  0
   -4.1855   -0.8128   -0.3555 C   0  0  0  0  0  0  0  0  0  0  0  0
   -0.3908   -1.0005    1.7893 C   0  0  0  0  0  0  0  0  0  0  0  0
    1.9155    1.8552   -3.6919 H   0  0  0  0  0  0  0  0  0  0  0  0
    0.7631    2.1348   -2.3762 H   0  0  0  0  0  0  0  0  0  0  0  0
    0.9118    0.5197   -3.1043 H   0  0  0  0  0  0  0  0  0  0  0  0
    4.4062    1.7209   -2.7949 H   0  0  0  0  0  0  0  0  0  0  0  0
    7.1504    0.3401    0.7969 H   0  0  0  0  0  0  0  0  0  0  0  0
    3.7639   -0.1071    0.9186 H   0  0  0  0  0  0  0  0  0  0  0  0
    0.2285    0.3031   -0.4840 H   0  0  0  0  0  0  0  0  0  0  0  0
    1.6082   -2.4562    3.8703 H   0  0  0  0  0  0  0  0  0  0  0  0
   -3.1082   -2.6129    3.8395 H   0  0  0  0  0  0  0  0  0  0  0  0
   -1.5474    1.0147    0.5367 H   0  0  0  0  0  0  0  0  0  0  0  0
   -2.8261    2.2520   -0.9432 H   0  0  0  0  0  0  0  0  0  0  0  0
   -4.8593    2.4516   -2.3334 H   0  0  0  0  0  0  0  0  0  0  0  0
   -4.0119   -1.7462    0.1723 H   0  0  0  0  0  0  0  0  0  0  0  0
  1  2  1  0
  2  3  1  0
  3  4  2  0
  4  5  1  0
  5  6  2  0
  5  7  1  0
  4  8  1  0
  8  9  1  0
  9 10  1  0
 10 11  2  0
 11 12  1  0
 12 13  2  0
 12 14  1  0
 14 15  1  0
 15 16  2  0
 16 17  1  0
 17 18  2  0
 18 19  1  0
 19 20  1  0
 20 21  1  0
 21 22  2  0
 22 23  1  0
 23 24  2  0
 24 25  1  0
 24 26  1  0
 26 27  1  0
 26 28  2  0
 19 29  2  0
  9  2  2  0
 29 11  1  0
 29 15  1  0
 28 21  1  0
  1 30  1  0
  1 31  1  0
  1 32  1  0
  3 33  1  0
  7 34  1  0
  8 35  1  0
 10 36  1  0
 14 37  1  0
 17 38  1  0
 20 39  1  0
 22 40  1  0
 23 41  1  0
 28 42  1  0
M  END
$$$$
