RHKOFLSVENLYDP-LJQANCHMSA-N
     RDKit          3D

 65 68  0  0  0  0  0  0  0  0999 V2000
    9.1798    2.1252   -0.6960 C   0  0  0  0  0  0  0  0  0  0  0  0
    7.7871    1.9897   -0.1578 C   0  0  0  0  0  0  0  0  0  0  0  0
    6.8703    1.1435   -0.7754 C   0  0  0  0  0  0  0  0  0  0  0  0
    5.5754    1.0526   -0.2622 C   0  0  0  0  0  0  0  0  0  0  0  0
    5.2230    1.8187    0.8452 C   0  0  0  0  0  0  0  0  0  0  0  0
    3.9977    1.8379    1.4693 O   0  0  0  0  0  0  0  0  0  0  0  0
    2.9859    1.0860    0.9252 C   0  0  0  0  0  0  0  0  0  0  0  0
    2.2252    1.6227   -0.1118 C   0  0  0  0  0  0  0  0  0  0  0  0
    1.1808    0.8754   -0.6608 C   0  0  0  0  0  0  0  0  0  0  0  0
    0.8708   -0.4065   -0.1786 C   0  0  0  0  0  0  0  0  0  0  0  0
   -0.1935   -1.1044   -0.7685 N   0  0  0  0  0  0  0  0  0  0  0  0
   -0.6318   -2.4453   -0.6830 C   0  0  0  0  0  0  0  0  0  0  0  0
    0.2154   -3.3660   -0.1817 N   0  0  0  0  0  0  0  0  0  0  0  0
   -0.2301   -4.6194   -0.1005 C   0  0  0  0  0  0  0  0  0  0  0  0
   -1.4428   -5.0458   -0.4579 N   0  0  0  0  0  0  0  0  0  0  0  0
   -2.2828   -4.1297   -0.9446 C   0  0  0  0  0  0  0  0  0  0  0  0
   -3.5454   -4.5697   -1.3114 C   0  0  0  0  0  0  0  0  0  0  0  0
   -4.5045   -3.7045   -1.8323 C   0  0  0  0  0  0  0  0  0  0  0  0
   -4.2047   -2.3576   -1.9949 C   0  0  0  0  0  0  0  0  0  0  0  0
   -2.9440   -1.8775   -1.6284 C   0  0  0  0  0  0  0  0  0  0  0  0
   -2.5663   -0.5614   -1.7710 O   0  0  0  0  0  0  0  0  0  0  0  0
   -3.5635    0.4337   -1.9684 C   0  0  2  0  0  0  0  0  0  0  0  0
   -2.8561    1.7670   -2.2147 C   0  0  0  0  0  0  0  0  0  0  0  0
   -4.6367    0.6227   -0.8668 C   0  0  0  0  0  0  0  0  0  0  0  0
   -5.8174    0.7798   -1.2112 O   0  0  0  0  0  0  0  0  0  0  0  0
   -4.2900    0.6632    0.4743 N   0  0  0  0  0  0  0  0  0  0  0  0
   -2.9371    0.6215    1.0156 C   0  0  0  0  0  0  0  0  0  0  0  0
   -5.3672    0.8142    1.4637 C   0  0  0  0  0  0  0  0  0  0  0  0
   -5.7740    2.2814    1.6659 C   0  0  0  0  0  0  0  0  0  0  0  0
   -6.4622    2.8276    0.5442 O   0  0  0  0  0  0  0  0  0  0  0  0
   -1.9524   -2.7721   -1.0970 C   0  0  0  0  0  0  0  0  0  0  0  0
    1.6298   -0.9078    0.8867 C   0  0  0  0  0  0  0  0  0  0  0  0
    2.6803   -0.1699    1.4593 C   0  0  0  0  0  0  0  0  0  0  0  0
    3.4711   -0.7450    2.5981 C   0  0  0  0  0  0  0  0  0  0  0  0
    6.2029    2.6368    1.3944 C   0  0  0  0  0  0  0  0  0  0  0  0
    7.4677    2.7444    0.9197 N   0  0  0  0  0  0  0  0  0  0  0  0
    9.8634    2.4680    0.0896 H   0  0  0  0  0  0  0  0  0  0  0  0
    9.1966    2.8512   -1.5159 H   0  0  0  0  0  0  0  0  0  0  0  0
    9.5520    1.1613   -1.0578 H   0  0  0  0  0  0  0  0  0  0  0  0
    7.1536    0.5527   -1.6405 H   0  0  0  0  0  0  0  0  0  0  0  0
    4.8692    0.3801   -0.7400 H   0  0  0  0  0  0  0  0  0  0  0  0
    2.4496    2.6126   -0.4987 H   0  0  0  0  0  0  0  0  0  0  0  0
    0.6107    1.3061   -1.4798 H   0  0  0  0  0  0  0  0  0  0  0  0
   -0.7004   -0.5953   -1.4850 H   0  0  0  0  0  0  0  0  0  0  0  0
    0.4560   -5.3611    0.2947 H   0  0  0  0  0  0  0  0  0  0  0  0
   -3.7911   -5.6241   -1.1894 H   0  0  0  0  0  0  0  0  0  0  0  0
   -5.4839   -4.0864   -2.1117 H   0  0  0  0  0  0  0  0  0  0  0  0
   -4.9767   -1.7202   -2.4160 H   0  0  0  0  0  0  0  0  0  0  0  0
   -4.0939    0.2068   -2.9029 H   0  0  0  0  0  0  0  0  0  0  0  0
   -3.5755    2.5744   -2.3821 H   0  0  0  0  0  0  0  0  0  0  0  0
   -2.2033    1.6922   -3.0915 H   0  0  0  0  0  0  0  0  0  0  0  0
   -2.2155    2.0536   -1.3766 H   0  0  0  0  0  0  0  0  0  0  0  0
   -2.8400   -0.2662    1.6453 H   0  0  0  0  0  0  0  0  0  0  0  0
   -2.1678    0.6015    0.2510 H   0  0  0  0  0  0  0  0  0  0  0  0
   -2.7777    1.5153    1.6256 H   0  0  0  0  0  0  0  0  0  0  0  0
   -6.2355    0.2349    1.1264 H   0  0  0  0  0  0  0  0  0  0  0  0
   -5.0271    0.3833    2.4121 H   0  0  0  0  0  0  0  0  0  0  0  0
   -6.4475    2.3581    2.5244 H   0  0  0  0  0  0  0  0  0  0  0  0
   -4.8978    2.9077    1.8623 H   0  0  0  0  0  0  0  0  0  0  0  0
   -6.4817    2.1490   -0.1652 H   0  0  0  0  0  0  0  0  0  0  0  0
    1.3980   -1.8846    1.3003 H   0  0  0  0  0  0  0  0  0  0  0  0
    4.4704   -1.0314    2.2564 H   0  0  0  0  0  0  0  0  0  0  0  0
    3.5609   -0.0170    3.4109 H   0  0  0  0  0  0  0  0  0  0  0  0
    2.9851   -1.6348    3.0130 H   0  0  0  0  0  0  0  0  0  0  0  0
    5.9893    3.2507    2.2655 H   0  0  0  0  0  0  0  0  0  0  0  0
  1  2  1  0
  2  3  2  0
  3  4  1  0
  4  5  2  0
  5  6  1  0
  6  7  1  0
  7  8  2  0
  8  9  1  0
  9 10  2  0
 10 11  1  0
 11 12  1  0
 12 13  2  0
 13 14  1  0
 14 15  2  0
 15 16  1  0
 16 17  2  0
 17 18  1  0
 18 19  2  0
 19 20  1  0
 20 21  1  0
 21 22  1  0
 22 23  1  0
 22 24  1  0
 24 25  2  0
 24 26  1  0
 26 27  1  0
 26 28  1  0
 28 29  1  0
 29 30  1  0
 20 31  2  0
 10 32  1  0
 32 33  2  0
 33 34  1  0
  5 35  1  0
 35 36  2  0
 36  2  1  0
 33  7  1  0
 31 12  1  0
 31 16  1  0
  1 37  1  0
  1 38  1  0
  1 39  1  0
  3 40  1  0
  4 41  1  0
  8 42  1  0
  9 43  1  0
 11 44  1  0
 14 45  1  0
 17 46  1  0
 18 47  1  0
 19 48  1  0
 22 49  1  6
 23 50  1  0
 23 51  1  0
 23 52  1  0
 27 53  1  0
 27 54  1  0
 27 55  1  0
 28 56  1  0
 28 57  1  0
 29 58  1  0
 29 59  1  0
 30 60  1  0
 32 61  1  0
 34 62  1  0
 34 63  1  0
 34 64  1  0
 35 65  1  0
M  END
$$$$
