SQUSZMTZUQQFKO-UHFFFAOYSA-N
     RDKit          3D

 43 45  0  0  0  0  0  0  0  0999 V2000
   -3.6364   -3.6011   -3.7455 C   0  0  0  0  0  0  0  0  0  0  0  0
   -3.5977   -2.2251   -3.3944 O   0  0  0  0  0  0  0  0  0  0  0  0
   -2.9043   -1.8737   -2.2628 C   0  0  0  0  0  0  0  0  0  0  0  0
   -2.2372   -2.7790   -1.4298 C   0  0  0  0  0  0  0  0  0  0  0  0
   -1.5491   -2.3683   -0.2953 C   0  0  0  0  0  0  0  0  0  0  0  0
   -0.9505   -3.2999    0.4516 N   0  0  0  0  0  0  0  0  0  0  0  0
   -0.3125   -2.8705    1.5443 C   0  0  0  0  0  0  0  0  0  0  0  0
   -0.2008   -1.6021    1.9493 N   0  0  0  0  0  0  0  0  0  0  0  0
   -0.7842   -0.6669    1.1788 C   0  0  0  0  0  0  0  0  0  0  0  0
   -0.6855    0.6626    1.5820 N   0  0  0  0  0  0  0  0  0  0  0  0
   -0.0307    0.9956    2.8432 C   0  0  0  0  0  0  0  0  0  0  0  0
    1.4929    1.0671    2.6810 C   0  0  0  0  0  0  0  0  0  0  0  0
    1.7965    2.1468    1.7889 O   0  0  0  0  0  0  0  0  0  0  0  0
    3.1093    2.3405    1.4579 C   0  0  0  0  0  0  0  0  0  0  0  0
    4.1943    1.6307    1.9770 C   0  0  0  0  0  0  0  0  0  0  0  0
    5.4966    1.9288    1.5569 C   0  0  0  0  0  0  0  0  0  0  0  0
    5.7242    2.9362    0.6190 C   0  0  0  0  0  0  0  0  0  0  0  0
    4.6480    3.6497    0.0982 C   0  0  0  0  0  0  0  0  0  0  0  0
    3.3551    3.3488    0.5195 C   0  0  0  0  0  0  0  0  0  0  0  0
    2.3334    4.0490    0.0020 F   0  0  0  0  0  0  0  0  0  0  0  0
   -1.5136   -1.0049    0.0215 C   0  0  0  0  0  0  0  0  0  0  0  0
   -2.1979   -0.0813   -0.8105 C   0  0  0  0  0  0  0  0  0  0  0  0
   -2.8880   -0.5064   -1.9473 C   0  0  0  0  0  0  0  0  0  0  0  0
   -3.5694    0.3221   -2.8015 O   0  0  0  0  0  0  0  0  0  0  0  0
   -3.5801    1.7123   -2.5095 C   0  0  0  0  0  0  0  0  0  0  0  0
   -2.6317   -3.9847   -3.9516 H   0  0  0  0  0  0  0  0  0  0  0  0
   -4.2225   -3.6952   -4.6647 H   0  0  0  0  0  0  0  0  0  0  0  0
   -4.1361   -4.1923   -2.9711 H   0  0  0  0  0  0  0  0  0  0  0  0
   -2.2385   -3.8432   -1.6433 H   0  0  0  0  0  0  0  0  0  0  0  0
    0.1622   -3.6252    2.1616 H   0  0  0  0  0  0  0  0  0  0  0  0
   -0.5164    1.3311    0.8382 H   0  0  0  0  0  0  0  0  0  0  0  0
   -0.3084    0.2949    3.6389 H   0  0  0  0  0  0  0  0  0  0  0  0
   -0.3991    1.9827    3.1465 H   0  0  0  0  0  0  0  0  0  0  0  0
    1.8802    0.1239    2.2796 H   0  0  0  0  0  0  0  0  0  0  0  0
    1.9406    1.2673    3.6614 H   0  0  0  0  0  0  0  0  0  0  0  0
    4.0648    0.8406    2.7093 H   0  0  0  0  0  0  0  0  0  0  0  0
    6.3366    1.3705    1.9648 H   0  0  0  0  0  0  0  0  0  0  0  0
    6.7370    3.1632    0.2960 H   0  0  0  0  0  0  0  0  0  0  0  0
    4.8032    4.4370   -0.6323 H   0  0  0  0  0  0  0  0  0  0  0  0
   -2.1849    0.9677   -0.5366 H   0  0  0  0  0  0  0  0  0  0  0  0
   -2.5677    2.1287   -2.5331 H   0  0  0  0  0  0  0  0  0  0  0  0
   -4.0684    1.9105   -1.5498 H   0  0  0  0  0  0  0  0  0  0  0  0
   -4.1632    2.2131   -3.2884 H   0  0  0  0  0  0  0  0  0  0  0  0
  1  2  1  0
  2  3  1  0
  3  4  2  0
  4  5  1  0
  5  6  2  0
  6  7  1  0
  7  8  2  0
  8  9  1  0
  9 10  1  0
 10 11  1  0
 11 12  1  0
 12 13  1  0
 13 14  1  0
 14 15  2  0
 15 16  1  0
 16 17  2  0
 17 18  1  0
 18 19  2  0
 19 20  1  0
  9 21  2  0
 21 22  1  0
 22 23  2  0
 23 24  1  0
 24 25  1  0
 23  3  1  0
 21  5  1  0
 19 14  1  0
  1 26  1  0
  1 27  1  0
  1 28  1  0
  4 29  1  0
  7 30  1  0
 10 31  1  0
 11 32  1  0
 11 33  1  0
 12 34  1  0
 12 35  1  0
 15 36  1  0
 16 37  1  0
 17 38  1  0
 18 39  1  0
 22 40  1  0
 25 41  1  0
 25 42  1  0
 25 43  1  0
M  END
$$$$
