SSDRFTJAKXCHTF-ZDUSSCGKSA-N
     RDKit          3D

 51 52  0  0  0  0  0  0  0  0999 V2000
   -4.4728    3.0153   -0.5900 C   0  0  0  0  0  0  0  0  0  0  0  0
   -4.5664    1.5266   -0.8986 C   0  0  0  0  0  0  0  0  0  0  0  0
   -3.4304    0.7142   -0.2602 C   0  0  1  0  0  0  0  0  0  0  0  0
   -3.6930   -0.8011   -0.4085 C   0  0  0  0  0  0  0  0  0  0  0  0
   -2.5727   -1.6472    0.1511 C   0  0  0  0  0  0  0  0  0  0  0  0
   -2.5070   -1.9843    1.5026 C   0  0  0  0  0  0  0  0  0  0  0  0
   -1.3790   -2.6391    2.0142 C   0  0  0  0  0  0  0  0  0  0  0  0
   -0.2843   -2.9298    1.1905 C   0  0  0  0  0  0  0  0  0  0  0  0
    0.8872   -3.5024    1.6141 O   0  0  0  0  0  0  0  0  0  0  0  0
    0.9634   -3.8875    2.9812 C   0  0  0  0  0  0  0  0  0  0  0  0
   -0.3457   -2.5988   -0.1720 C   0  0  0  0  0  0  0  0  0  0  0  0
    0.8396   -2.7322   -1.0940 C   0  0  0  0  0  0  0  0  0  0  0  0
    1.7523   -1.6188   -0.9183 N   0  0  0  0  0  0  0  0  0  0  0  0
    1.5678   -0.3886   -1.5105 C   0  0  0  0  0  0  0  0  0  0  0  0
    0.6315   -0.0977   -2.2505 O   0  0  0  0  0  0  0  0  0  0  0  0
    2.5829    0.6449   -1.1709 C   0  0  0  0  0  0  0  0  0  0  0  0
    2.1833    1.9846   -1.0906 C   0  0  0  0  0  0  0  0  0  0  0  0
    3.1130    2.9815   -0.7787 C   0  0  0  0  0  0  0  0  0  0  0  0
    4.4564    2.6498   -0.5536 C   0  0  0  0  0  0  0  0  0  0  0  0
    5.4883    3.6846   -0.2165 C   0  0  0  0  0  0  0  0  0  0  0  0
    4.9765    4.9472   -0.1477 F   0  0  0  0  0  0  0  0  0  0  0  0
    6.0827    3.4664    0.9887 F   0  0  0  0  0  0  0  0  0  0  0  0
    6.4932    3.7485   -1.1325 F   0  0  0  0  0  0  0  0  0  0  0  0
    4.8394    1.3132   -0.6520 C   0  0  0  0  0  0  0  0  0  0  0  0
    6.1189    0.9703   -0.4524 F   0  0  0  0  0  0  0  0  0  0  0  0
    3.9230    0.3102   -0.9595 C   0  0  0  0  0  0  0  0  0  0  0  0
   -1.5092   -2.0062   -0.6816 C   0  0  0  0  0  0  0  0  0  0  0  0
   -2.0866    1.1103   -0.8458 C   0  0  0  0  0  0  0  0  0  0  0  0
   -1.2063    1.7052   -0.2420 O   0  0  0  0  0  0  0  0  0  0  0  0
   -1.9218    0.7206   -2.1250 O   0  0  0  0  0  0  0  0  0  0  0  0
   -5.3315    3.5424   -1.0180 H   0  0  0  0  0  0  0  0  0  0  0  0
   -3.5655    3.4562   -1.0139 H   0  0  0  0  0  0  0  0  0  0  0  0
   -4.4712    3.1926    0.4902 H   0  0  0  0  0  0  0  0  0  0  0  0
   -4.5717    1.3892   -1.9867 H   0  0  0  0  0  0  0  0  0  0  0  0
   -5.5303    1.1590   -0.5260 H   0  0  0  0  0  0  0  0  0  0  0  0
   -3.3854    0.9473    0.8126 H   0  0  0  0  0  0  0  0  0  0  0  0
   -4.6269   -1.0661    0.1042 H   0  0  0  0  0  0  0  0  0  0  0  0
   -3.8507   -1.0631   -1.4633 H   0  0  0  0  0  0  0  0  0  0  0  0
   -3.3183   -1.7178    2.1761 H   0  0  0  0  0  0  0  0  0  0  0  0
   -1.3734   -2.8715    3.0740 H   0  0  0  0  0  0  0  0  0  0  0  0
    1.9422   -4.3493    3.1432 H   0  0  0  0  0  0  0  0  0  0  0  0
    0.1996   -4.6330    3.2260 H   0  0  0  0  0  0  0  0  0  0  0  0
    0.8946   -3.0158    3.6403 H   0  0  0  0  0  0  0  0  0  0  0  0
    1.3893   -3.6581   -0.8944 H   0  0  0  0  0  0  0  0  0  0  0  0
    0.5190   -2.7680   -2.1418 H   0  0  0  0  0  0  0  0  0  0  0  0
    2.4433   -1.7297   -0.1898 H   0  0  0  0  0  0  0  0  0  0  0  0
    1.1420    2.2574   -1.2556 H   0  0  0  0  0  0  0  0  0  0  0  0
    2.7786    4.0164   -0.7109 H   0  0  0  0  0  0  0  0  0  0  0  0
    4.2783   -0.7109   -1.0519 H   0  0  0  0  0  0  0  0  0  0  0  0
   -1.5462   -1.7475   -1.7396 H   0  0  0  0  0  0  0  0  0  0  0  0
   -0.9398    0.7108   -2.2750 H   0  0  0  0  0  0  0  0  0  0  0  0
  1  2  1  0
  2  3  1  0
  3  4  1  0
  4  5  1  0
  5  6  2  0
  6  7  1  0
  7  8  2  0
  8  9  1  0
  9 10  1  0
  8 11  1  0
 11 12  1  0
 12 13  1  0
 13 14  1  0
 14 15  2  0
 14 16  1  0
 16 17  2  0
 17 18  1  0
 18 19  2  0
 19 20  1  0
 20 21  1  0
 20 22  1  0
 20 23  1  0
 19 24  1  0
 24 25  1  0
 24 26  2  0
 11 27  2  0
  3 28  1  0
 28 29  2  0
 28 30  1  0
 27  5  1  0
 26 16  1  0
  1 31  1  0
  1 32  1  0
  1 33  1  0
  2 34  1  0
  2 35  1  0
  3 36  1  1
  4 37  1  0
  4 38  1  0
  6 39  1  0
  7 40  1  0
 10 41  1  0
 10 42  1  0
 10 43  1  0
 12 44  1  0
 12 45  1  0
 13 46  1  0
 17 47  1  0
 18 48  1  0
 26 49  1  0
 27 50  1  0
 30 51  1  0
M  END
$$$$
