SVINRMDAUITLII-UHFFFAOYSA-N
     RDKit          3D

 66 68  0  0  0  0  0  0  0  0999 V2000
    1.3123   -3.5029   -3.1653 C   0  0  0  0  0  0  0  0  0  0  0  0
    0.8288   -3.3969   -1.7279 C   0  0  0  0  0  0  0  0  0  0  0  0
    1.1554   -2.0300   -1.1266 C   0  0  0  0  0  0  0  0  0  0  0  0
    0.6714   -1.9325    0.3224 C   0  0  0  0  0  0  0  0  0  0  0  0
    0.9203   -0.5529    0.8584 N   0  0  0  0  0  0  0  0  0  0  0  0
    2.3077   -0.2598    1.1800 C   0  0  0  0  0  0  0  0  0  0  0  0
    2.9778   -1.0107    2.1548 C   0  0  0  0  0  0  0  0  0  0  0  0
    4.2956   -0.7179    2.4871 C   0  0  0  0  0  0  0  0  0  0  0  0
    4.9463    0.3396    1.8580 C   0  0  0  0  0  0  0  0  0  0  0  0
    4.2947    1.1238    0.8882 C   0  0  0  0  0  0  0  0  0  0  0  0
    5.0285    2.2546    0.2997 C   0  0  0  0  0  0  0  0  0  0  0  0
    4.7689    3.5705    0.7164 C   0  0  0  0  0  0  0  0  0  0  0  0
    5.4686    4.6464    0.1629 C   0  0  0  0  0  0  0  0  0  0  0  0
    6.4356    4.4132   -0.8117 C   0  0  0  0  0  0  0  0  0  0  0  0
    7.2991    5.7360   -1.4929 Cl  0  0  0  0  0  0  0  0  0  0  0  0
    6.7107    3.1149   -1.2359 C   0  0  0  0  0  0  0  0  0  0  0  0
    6.0091    2.0404   -0.6819 C   0  0  0  0  0  0  0  0  0  0  0  0
    2.9605    0.8084    0.5272 C   0  0  0  0  0  0  0  0  0  0  0  0
    2.2210    1.6399   -0.4909 C   0  0  0  0  0  0  0  0  0  0  0  0
   -0.1569   -0.0918    2.1414 S   0  0  0  0  0  0  0  0  0  0  0  0
   -0.1838   -1.2195    3.0502 O   0  0  0  0  0  0  0  0  0  0  0  0
    0.1771    1.2464    2.5815 O   0  0  0  0  0  0  0  0  0  0  0  0
   -1.7305    0.0496    1.3230 C   0  0  0  0  0  0  0  0  0  0  0  0
   -1.7346    0.5038   -0.0089 C   0  0  0  0  0  0  0  0  0  0  0  0
   -2.9268    0.5831   -0.7250 C   0  0  0  0  0  0  0  0  0  0  0  0
   -4.1207    0.2108   -0.1177 C   0  0  0  0  0  0  0  0  0  0  0  0
   -5.2615    0.3004   -0.8728 O   0  0  0  0  0  0  0  0  0  0  0  0
   -5.8176   -0.9879   -1.1804 C   0  0  0  0  0  0  0  0  0  0  0  0
   -7.3142   -0.9193   -0.8928 C   0  0  0  0  0  0  0  0  0  0  0  0
   -5.6050   -1.3493   -2.6530 C   0  0  0  0  0  0  0  0  0  0  0  0
   -6.3898   -1.9370   -3.3818 O   0  0  0  0  0  0  0  0  0  0  0  0
   -4.3933   -1.0004   -3.1385 O   0  0  0  0  0  0  0  0  0  0  0  0
   -4.1358   -0.1556    1.2360 C   0  0  0  0  0  0  0  0  0  0  0  0
   -5.3368   -0.4590    1.8348 O   0  0  0  0  0  0  0  0  0  0  0  0
   -5.9664    0.7390    2.3013 C   0  0  0  0  0  0  0  0  0  0  0  0
   -2.9345   -0.2620    1.9641 C   0  0  0  0  0  0  0  0  0  0  0  0
   -3.0293   -0.7077    3.6347 Cl  0  0  0  0  0  0  0  0  0  0  0  0
    2.3947   -3.3476   -3.2291 H   0  0  0  0  0  0  0  0  0  0  0  0
    1.0865   -4.4949   -3.5692 H   0  0  0  0  0  0  0  0  0  0  0  0
    0.8190   -2.7593   -3.8004 H   0  0  0  0  0  0  0  0  0  0  0  0
    1.2969   -4.1882   -1.1307 H   0  0  0  0  0  0  0  0  0  0  0  0
   -0.2539   -3.5658   -1.6998 H   0  0  0  0  0  0  0  0  0  0  0  0
    2.2377   -1.8615   -1.1738 H   0  0  0  0  0  0  0  0  0  0  0  0
    0.6851   -1.2419   -1.7270 H   0  0  0  0  0  0  0  0  0  0  0  0
   -0.4015   -2.1550    0.3408 H   0  0  0  0  0  0  0  0  0  0  0  0
    1.1640   -2.6910    0.9418 H   0  0  0  0  0  0  0  0  0  0  0  0
    2.4733   -1.8177    2.6811 H   0  0  0  0  0  0  0  0  0  0  0  0
    4.8089   -1.2991    3.2492 H   0  0  0  0  0  0  0  0  0  0  0  0
    5.9711    0.5716    2.1450 H   0  0  0  0  0  0  0  0  0  0  0  0
    4.0189    3.7609    1.4821 H   0  0  0  0  0  0  0  0  0  0  0  0
    5.2567    5.6570    0.5003 H   0  0  0  0  0  0  0  0  0  0  0  0
    7.4672    2.9312   -1.9938 H   0  0  0  0  0  0  0  0  0  0  0  0
    6.2307    1.0292   -1.0192 H   0  0  0  0  0  0  0  0  0  0  0  0
    1.6668    2.4389    0.0108 H   0  0  0  0  0  0  0  0  0  0  0  0
    2.8972    2.0852   -1.2274 H   0  0  0  0  0  0  0  0  0  0  0  0
    1.5226    1.0329   -1.0731 H   0  0  0  0  0  0  0  0  0  0  0  0
   -0.8110    0.7998   -0.5002 H   0  0  0  0  0  0  0  0  0  0  0  0
   -2.9231    0.9211   -1.7593 H   0  0  0  0  0  0  0  0  0  0  0  0
   -5.3738   -1.7983   -0.5870 H   0  0  0  0  0  0  0  0  0  0  0  0
   -7.5005   -0.6808    0.1592 H   0  0  0  0  0  0  0  0  0  0  0  0
   -7.7903   -0.1305   -1.4870 H   0  0  0  0  0  0  0  0  0  0  0  0
   -7.8095   -1.8687   -1.1198 H   0  0  0  0  0  0  0  0  0  0  0  0
   -4.4312   -1.2806   -4.0775 H   0  0  0  0  0  0  0  0  0  0  0  0
   -5.3128    1.3042    2.9751 H   0  0  0  0  0  0  0  0  0  0  0  0
   -6.8605    0.4488    2.8604 H   0  0  0  0  0  0  0  0  0  0  0  0
   -6.2811    1.3725    1.4646 H   0  0  0  0  0  0  0  0  0  0  0  0
  1  2  1  0
  2  3  1  0
  3  4  1  0
  4  5  1  0
  5  6  1  0
  6  7  2  0
  7  8  1  0
  8  9  2  0
  9 10  1  0
 10 11  1  0
 11 12  2  0
 12 13  1  0
 13 14  2  0
 14 15  1  0
 14 16  1  0
 16 17  2  0
 10 18  2  0
 18 19  1  0
  5 20  1  0
 20 21  2  0
 20 22  2  0
 20 23  1  0
 23 24  2  0
 24 25  1  0
 25 26  2  0
 26 27  1  0
 27 28  1  0
 28 29  1  0
 28 30  1  0
 30 31  2  0
 30 32  1  0
 26 33  1  0
 33 34  1  0
 34 35  1  0
 33 36  2  0
 36 37  1  0
 18  6  1  0
 36 23  1  0
 17 11  1  0
  1 38  1  0
  1 39  1  0
  1 40  1  0
  2 41  1  0
  2 42  1  0
  3 43  1  0
  3 44  1  0
  4 45  1  0
  4 46  1  0
  7 47  1  0
  8 48  1  0
  9 49  1  0
 12 50  1  0
 13 51  1  0
 16 52  1  0
 17 53  1  0
 19 54  1  0
 19 55  1  0
 19 56  1  0
 24 57  1  0
 25 58  1  0
 28 59  1  0
 29 60  1  0
 29 61  1  0
 29 62  1  0
 32 63  1  0
 35 64  1  0
 35 65  1  0
 35 66  1  0
M  END
$$$$
