SZOBDUWPNZYVFT-UHFFFAOYSA-N
     RDKit          3D

 73 76  0  0  0  0  0  0  0  0999 V2000
   -4.0344   -5.3367    2.1902 C   0  0  0  0  0  0  0  0  0  0  0  0
   -2.6574   -4.7110    2.3463 C   0  0  0  0  0  0  0  0  0  0  0  0
   -2.5880   -3.3358    1.6787 C   0  0  0  0  0  0  0  0  0  0  0  0
   -1.1953   -2.7100    1.8470 C   0  0  0  0  0  0  0  0  0  0  0  0
   -1.0746   -1.4095    1.1546 N   0  0  0  0  0  0  0  0  0  0  0  0
   -1.7986   -0.3437    1.8738 C   0  0  0  0  0  0  0  0  0  0  0  0
   -2.6210    0.5508    0.9359 C   0  0  0  0  0  0  0  0  0  0  0  0
   -3.6775   -0.2208    0.1407 C   0  0  0  0  0  0  0  0  0  0  0  0
   -4.5371    0.6905   -0.6804 C   0  0  0  0  0  0  0  0  0  0  0  0
   -4.2846    1.1027   -1.9745 C   0  0  0  0  0  0  0  0  0  0  0  0
   -5.3019    1.9272   -2.3704 N   0  0  0  0  0  0  0  0  0  0  0  0
   -6.2228    2.0677   -1.3589 C   0  0  0  0  0  0  0  0  0  0  0  0
   -7.4108    2.8078   -1.3166 C   0  0  0  0  0  0  0  0  0  0  0  0
   -8.1602    2.7631   -0.1374 C   0  0  0  0  0  0  0  0  0  0  0  0
   -7.7362    2.0086    0.9537 C   0  0  0  0  0  0  0  0  0  0  0  0
   -6.5454    1.2753    0.8941 C   0  0  0  0  0  0  0  0  0  0  0  0
   -5.7704    1.3018   -0.2838 C   0  0  0  0  0  0  0  0  0  0  0  0
    0.3601   -1.0942    0.9667 C   0  0  0  0  0  0  0  0  0  0  0  0
    0.6333    0.1581    0.1202 C   0  0  0  0  0  0  0  0  0  0  0  0
    2.1337    0.4024   -0.1455 C   0  0  0  0  0  0  0  0  0  0  0  0
    2.7611   -0.6729   -1.0461 C   0  0  0  0  0  0  0  0  0  0  0  0
    4.2095   -0.3333   -1.4118 C   0  0  0  0  0  0  0  0  0  0  0  0
    4.2930    0.9852   -2.0408 N   0  0  0  0  0  0  0  0  0  0  0  0
    5.6143    1.2786   -2.6145 C   0  0  0  0  0  0  0  0  0  0  0  0
    6.7825    1.3584   -1.6537 C   0  0  0  0  0  0  0  0  0  0  0  0
    7.5443    0.2172   -1.3592 C   0  0  0  0  0  0  0  0  0  0  0  0
    8.6278    0.2910   -0.4815 C   0  0  0  0  0  0  0  0  0  0  0  0
    8.9641    1.5065    0.1104 C   0  0  0  0  0  0  0  0  0  0  0  0
    8.2188    2.6487   -0.1751 C   0  0  0  0  0  0  0  0  0  0  0  0
    7.1350    2.5762   -1.0527 C   0  0  0  0  0  0  0  0  0  0  0  0
    3.7956    2.0377   -1.1546 C   0  0  0  0  0  0  0  0  0  0  0  0
    2.3312    1.7841   -0.7913 C   0  0  0  0  0  0  0  0  0  0  0  0
   -4.8057   -4.7060    2.6432 H   0  0  0  0  0  0  0  0  0  0  0  0
   -4.2835   -5.4789    1.1334 H   0  0  0  0  0  0  0  0  0  0  0  0
   -4.0636   -6.3145    2.6812 H   0  0  0  0  0  0  0  0  0  0  0  0
   -2.4241   -4.6178    3.4134 H   0  0  0  0  0  0  0  0  0  0  0  0
   -1.9075   -5.3784    1.9066 H   0  0  0  0  0  0  0  0  0  0  0  0
   -3.3611   -2.6943    2.1145 H   0  0  0  0  0  0  0  0  0  0  0  0
   -2.8175   -3.4379    0.6102 H   0  0  0  0  0  0  0  0  0  0  0  0
   -0.9413   -2.6097    2.9102 H   0  0  0  0  0  0  0  0  0  0  0  0
   -0.4771   -3.4217    1.4184 H   0  0  0  0  0  0  0  0  0  0  0  0
   -1.1105    0.2757    2.4632 H   0  0  0  0  0  0  0  0  0  0  0  0
   -2.4933   -0.7592    2.6142 H   0  0  0  0  0  0  0  0  0  0  0  0
   -1.9691    1.0944    0.2437 H   0  0  0  0  0  0  0  0  0  0  0  0
   -3.1147    1.3188    1.5466 H   0  0  0  0  0  0  0  0  0  0  0  0
   -3.1954   -0.9474   -0.5247 H   0  0  0  0  0  0  0  0  0  0  0  0
   -4.3131   -0.7960    0.8243 H   0  0  0  0  0  0  0  0  0  0  0  0
   -3.4650    0.8762   -2.6433 H   0  0  0  0  0  0  0  0  0  0  0  0
   -5.3721    2.3720   -3.2746 H   0  0  0  0  0  0  0  0  0  0  0  0
   -7.7435    3.3964   -2.1651 H   0  0  0  0  0  0  0  0  0  0  0  0
   -9.0883    3.3260   -0.0725 H   0  0  0  0  0  0  0  0  0  0  0  0
   -8.3344    1.9865    1.8611 H   0  0  0  0  0  0  0  0  0  0  0  0
   -6.2239    0.6898    1.7500 H   0  0  0  0  0  0  0  0  0  0  0  0
    0.8232   -1.9462    0.4570 H   0  0  0  0  0  0  0  0  0  0  0  0
    0.8591   -0.9951    1.9398 H   0  0  0  0  0  0  0  0  0  0  0  0
    0.0977    0.0819   -0.8352 H   0  0  0  0  0  0  0  0  0  0  0  0
    0.2417    1.0384    0.6426 H   0  0  0  0  0  0  0  0  0  0  0  0
    2.6620    0.3995    0.8179 H   0  0  0  0  0  0  0  0  0  0  0  0
    2.7522   -1.6468   -0.5447 H   0  0  0  0  0  0  0  0  0  0  0  0
    2.1690   -0.7811   -1.9645 H   0  0  0  0  0  0  0  0  0  0  0  0
    4.8272   -0.3851   -0.5066 H   0  0  0  0  0  0  0  0  0  0  0  0
    4.5720   -1.1043   -2.1027 H   0  0  0  0  0  0  0  0  0  0  0  0
    5.5582    2.2191   -3.1794 H   0  0  0  0  0  0  0  0  0  0  0  0
    5.8415    0.5263   -3.3820 H   0  0  0  0  0  0  0  0  0  0  0  0
    7.2968   -0.7383   -1.8161 H   0  0  0  0  0  0  0  0  0  0  0  0
    9.2103   -0.6003   -0.2625 H   0  0  0  0  0  0  0  0  0  0  0  0
    9.8094    1.5637    0.7917 H   0  0  0  0  0  0  0  0  0  0  0  0
    8.4827    3.5977    0.2836 H   0  0  0  0  0  0  0  0  0  0  0  0
    6.5654    3.4776   -1.2683 H   0  0  0  0  0  0  0  0  0  0  0  0
    3.8555    3.0120   -1.6545 H   0  0  0  0  0  0  0  0  0  0  0  0
    4.3887    2.1015   -0.2341 H   0  0  0  0  0  0  0  0  0  0  0  0
    1.7128    1.8652   -1.6953 H   0  0  0  0  0  0  0  0  0  0  0  0
    1.9909    2.5687   -0.1047 H   0  0  0  0  0  0  0  0  0  0  0  0
  1  2  1  0
  2  3  1  0
  3  4  1  0
  4  5  1  0
  5  6  1  0
  6  7  1  0
  7  8  1  0
  8  9  1  0
  9 10  2  0
 10 11  1  0
 11 12  1  0
 12 13  2  0
 13 14  1  0
 14 15  2  0
 15 16  1  0
 16 17  2  0
  5 18  1  0
 18 19  1  0
 19 20  1  0
 20 21  1  0
 21 22  1  0
 22 23  1  0
 23 24  1  0
 24 25  1  0
 25 26  2  0
 26 27  1  0
 27 28  2  0
 28 29  1  0
 29 30  2  0
 23 31  1  0
 31 32  1  0
 17  9  1  0
 32 20  1  0
 17 12  1  0
 30 25  1  0
  1 33  1  0
  1 34  1  0
  1 35  1  0
  2 36  1  0
  2 37  1  0
  3 38  1  0
  3 39  1  0
  4 40  1  0
  4 41  1  0
  6 42  1  0
  6 43  1  0
  7 44  1  0
  7 45  1  0
  8 46  1  0
  8 47  1  0
 10 48  1  0
 11 49  1  0
 13 50  1  0
 14 51  1  0
 15 52  1  0
 16 53  1  0
 18 54  1  0
 18 55  1  0
 19 56  1  0
 19 57  1  0
 20 58  1  0
 21 59  1  0
 21 60  1  0
 22 61  1  0
 22 62  1  0
 24 63  1  0
 24 64  1  0
 26 65  1  0
 27 66  1  0
 28 67  1  0
 29 68  1  0
 30 69  1  0
 31 70  1  0
 31 71  1  0
 32 72  1  0
 32 73  1  0
M  END
$$$$
