TVEAXARFLUXLEB-UHFFFAOYSA-N
     RDKit          3D

 64 67  0  0  0  0  0  0  0  0999 V2000
   -2.8639   -1.2849    4.4084 C   0  0  0  0  0  0  0  0  0  0  0  0
   -2.5137   -0.4918    3.1597 C   0  0  0  0  0  0  0  0  0  0  0  0
   -3.0997   -1.1401    1.9046 C   0  0  0  0  0  0  0  0  0  0  0  0
   -2.7666   -0.3533    0.6561 C   0  0  0  0  0  0  0  0  0  0  0  0
   -3.6909    0.5920    0.1800 C   0  0  0  0  0  0  0  0  0  0  0  0
   -3.4162    1.3333   -0.9709 C   0  0  0  0  0  0  0  0  0  0  0  0
   -4.2605    2.2978   -1.4742 O   0  0  0  0  0  0  0  0  0  0  0  0
   -5.6118    2.0427   -1.4420 C   0  0  0  0  0  0  0  0  0  0  0  0
   -6.4351    3.0334   -0.9045 C   0  0  0  0  0  0  0  0  0  0  0  0
   -7.8138    2.8364   -0.8637 C   0  0  0  0  0  0  0  0  0  0  0  0
   -8.3568    1.6618   -1.3792 C   0  0  0  0  0  0  0  0  0  0  0  0
   -9.6841    1.4851   -1.3196 F   0  0  0  0  0  0  0  0  0  0  0  0
   -7.5495    0.6766   -1.9564 C   0  0  0  0  0  0  0  0  0  0  0  0
   -8.1584   -0.5846   -2.4874 C   0  0  0  0  0  0  0  0  0  0  0  0
   -6.1631    0.8752   -1.9833 C   0  0  0  0  0  0  0  0  0  0  0  0
   -2.2018    1.1644   -1.6305 C   0  0  0  0  0  0  0  0  0  0  0  0
   -1.2689    0.2374   -1.1585 C   0  0  0  0  0  0  0  0  0  0  0  0
   -1.5395   -0.5188   -0.0136 C   0  0  0  0  0  0  0  0  0  0  0  0
   -0.6862   -1.4453    0.5242 O   0  0  0  0  0  0  0  0  0  0  0  0
    0.6660   -1.4432    0.0631 C   0  0  0  0  0  0  0  0  0  0  0  0
    1.4577   -2.3864    0.9658 C   0  0  0  0  0  0  0  0  0  0  0  0
    2.9059   -2.5386    0.5177 C   0  0  0  0  0  0  0  0  0  0  0  0
    3.5342   -1.2581    0.5416 O   0  0  0  0  0  0  0  0  0  0  0  0
    4.8432   -1.1982    0.1515 C   0  0  0  0  0  0  0  0  0  0  0  0
    5.6448   -2.2810   -0.2018 C   0  0  0  0  0  0  0  0  0  0  0  0
    6.9743   -2.0736   -0.5744 C   0  0  0  0  0  0  0  0  0  0  0  0
    7.5086   -0.7845   -0.6013 C   0  0  0  0  0  0  0  0  0  0  0  0
    6.7159    0.3214   -0.2603 C   0  0  0  0  0  0  0  0  0  0  0  0
    7.2552    1.7346   -0.2597 C   0  0  0  0  0  0  0  0  0  0  0  0
    8.2390    2.0819    1.2348 S   0  0  0  0  0  0  0  0  0  0  0  0
    9.6164    2.6296    0.3201 C   0  0  0  0  0  0  0  0  0  0  0  0
   10.6506    3.0331    0.8230 O   0  0  0  0  0  0  0  0  0  0  0  0
    9.3769    2.5404   -1.0075 N   0  0  0  0  0  0  0  0  0  0  0  0
    8.1695    2.0665   -1.4267 C   0  0  0  0  0  0  0  0  0  0  0  0
    7.8900    1.9374   -2.6124 O   0  0  0  0  0  0  0  0  0  0  0  0
    5.3839    0.0916    0.1263 C   0  0  0  0  0  0  0  0  0  0  0  0
   -2.4706   -2.3047    4.3483 H   0  0  0  0  0  0  0  0  0  0  0  0
   -3.9486   -1.3415    4.5452 H   0  0  0  0  0  0  0  0  0  0  0  0
   -2.4337   -0.8056    5.2935 H   0  0  0  0  0  0  0  0  0  0  0  0
   -2.8926    0.5315    3.2669 H   0  0  0  0  0  0  0  0  0  0  0  0
   -1.4229   -0.4184    3.0778 H   0  0  0  0  0  0  0  0  0  0  0  0
   -2.7401   -2.1714    1.8008 H   0  0  0  0  0  0  0  0  0  0  0  0
   -4.1901   -1.2221    2.0025 H   0  0  0  0  0  0  0  0  0  0  0  0
   -4.6206    0.7487    0.7201 H   0  0  0  0  0  0  0  0  0  0  0  0
   -6.0011    3.9477   -0.5098 H   0  0  0  0  0  0  0  0  0  0  0  0
   -8.4694    3.5878   -0.4347 H   0  0  0  0  0  0  0  0  0  0  0  0
   -8.3754   -1.2718   -1.6637 H   0  0  0  0  0  0  0  0  0  0  0  0
   -9.0866   -0.3687   -3.0265 H   0  0  0  0  0  0  0  0  0  0  0  0
   -7.4835   -1.0849   -3.1896 H   0  0  0  0  0  0  0  0  0  0  0  0
   -5.5124    0.1246   -2.4257 H   0  0  0  0  0  0  0  0  0  0  0  0
   -1.9785    1.7538   -2.5158 H   0  0  0  0  0  0  0  0  0  0  0  0
   -0.3405    0.1287   -1.7087 H   0  0  0  0  0  0  0  0  0  0  0  0
    1.0864   -0.4324    0.1231 H   0  0  0  0  0  0  0  0  0  0  0  0
    0.7023   -1.8052   -0.9710 H   0  0  0  0  0  0  0  0  0  0  0  0
    0.9716   -3.3691    0.9939 H   0  0  0  0  0  0  0  0  0  0  0  0
    1.4237   -1.9954    1.9909 H   0  0  0  0  0  0  0  0  0  0  0  0
    3.4151   -3.2189    1.2103 H   0  0  0  0  0  0  0  0  0  0  0  0
    2.9328   -2.9557   -0.4963 H   0  0  0  0  0  0  0  0  0  0  0  0
    5.2714   -3.2994   -0.1921 H   0  0  0  0  0  0  0  0  0  0  0  0
    7.5974   -2.9232   -0.8439 H   0  0  0  0  0  0  0  0  0  0  0  0
    8.5496   -0.6618   -0.8926 H   0  0  0  0  0  0  0  0  0  0  0  0
    6.4323    2.4584   -0.2969 H   0  0  0  0  0  0  0  0  0  0  0  0
   10.0859    2.8113   -1.6707 H   0  0  0  0  0  0  0  0  0  0  0  0
    4.7466    0.9256    0.4158 H   0  0  0  0  0  0  0  0  0  0  0  0
  1  2  1  0
  2  3  1  0
  3  4  1  0
  4  5  2  0
  5  6  1  0
  6  7  1  0
  7  8  1  0
  8  9  2  0
  9 10  1  0
 10 11  2  0
 11 12  1  0
 11 13  1  0
 13 14  1  0
 13 15  2  0
  6 16  2  0
 16 17  1  0
 17 18  2  0
 18 19  1  0
 19 20  1  0
 20 21  1  0
 21 22  1  0
 22 23  1  0
 23 24  1  0
 24 25  2  0
 25 26  1  0
 26 27  2  0
 27 28  1  0
 28 29  1  0
 29 30  1  0
 30 31  1  0
 31 32  2  0
 31 33  1  0
 33 34  1  0
 34 35  2  0
 28 36  2  0
 18  4  1  0
 36 24  1  0
 15  8  1  0
 34 29  1  0
  1 37  1  0
  1 38  1  0
  1 39  1  0
  2 40  1  0
  2 41  1  0
  3 42  1  0
  3 43  1  0
  5 44  1  0
  9 45  1  0
 10 46  1  0
 14 47  1  0
 14 48  1  0
 14 49  1  0
 15 50  1  0
 16 51  1  0
 17 52  1  0
 20 53  1  0
 20 54  1  0
 21 55  1  0
 21 56  1  0
 22 57  1  0
 22 58  1  0
 25 59  1  0
 26 60  1  0
 27 61  1  0
 29 62  1  0
 33 63  1  0
 36 64  1  0
M  END
$$$$
