UOKGZPYGRJDACN-UHFFFAOYSA-N
     RDKit          3D

 34 37  0  0  0  0  0  0  0  0999 V2000
   -4.3036   -1.0937   -1.9311 C   0  0  0  0  0  0  0  0  0  0  0  0
   -3.2311   -0.5473   -1.1383 N   0  0  0  0  0  0  0  0  0  0  0  0
   -2.0244   -1.1491   -1.1576 N   0  0  0  0  0  0  0  0  0  0  0  0
   -1.2667   -0.3854   -0.3492 C   0  0  0  0  0  0  0  0  0  0  0  0
    0.1451   -0.6980   -0.1562 C   0  0  0  0  0  0  0  0  0  0  0  0
    0.5303   -1.9789    0.2490 C   0  0  0  0  0  0  0  0  0  0  0  0
    1.8799   -2.2789    0.4492 C   0  0  0  0  0  0  0  0  0  0  0  0
    2.8687   -1.3052    0.2402 C   0  0  0  0  0  0  0  0  0  0  0  0
    4.2288   -1.5893    0.4410 C   0  0  0  0  0  0  0  0  0  0  0  0
    5.2012   -0.6117    0.2241 C   0  0  0  0  0  0  0  0  0  0  0  0
    4.8267    0.6607   -0.1974 C   0  0  0  0  0  0  0  0  0  0  0  0
    3.4788    0.9593   -0.4025 C   0  0  0  0  0  0  0  0  0  0  0  0
    2.4880   -0.0120   -0.1866 C   0  0  0  0  0  0  0  0  0  0  0  0
    1.1273    0.2747   -0.3865 C   0  0  0  0  0  0  0  0  0  0  0  0
   -2.0245    0.6782    0.2270 C   0  0  0  0  0  0  0  0  0  0  0  0
   -1.8443    1.7275    1.1380 C   0  0  0  0  0  0  0  0  0  0  0  0
   -0.6855    1.9785    1.8322 N   0  0  0  0  0  0  0  0  0  0  0  0
   -2.8839    2.5544    1.3825 N   0  0  0  0  0  0  0  0  0  0  0  0
   -4.0553    2.3233    0.7593 C   0  0  0  0  0  0  0  0  0  0  0  0
   -4.3512    1.3408   -0.1062 N   0  0  0  0  0  0  0  0  0  0  0  0
   -3.2870    0.5495   -0.3278 C   0  0  0  0  0  0  0  0  0  0  0  0
   -5.2027   -0.4839   -1.8186 H   0  0  0  0  0  0  0  0  0  0  0  0
   -3.9895   -1.0988   -2.9780 H   0  0  0  0  0  0  0  0  0  0  0  0
   -4.5011   -2.1120   -1.5865 H   0  0  0  0  0  0  0  0  0  0  0  0
   -0.2206   -2.7502    0.4087 H   0  0  0  0  0  0  0  0  0  0  0  0
    2.1528   -3.2830    0.7665 H   0  0  0  0  0  0  0  0  0  0  0  0
    4.5418   -2.5788    0.7669 H   0  0  0  0  0  0  0  0  0  0  0  0
    6.2508   -0.8458    0.3821 H   0  0  0  0  0  0  0  0  0  0  0  0
    5.5836    1.4217   -0.3694 H   0  0  0  0  0  0  0  0  0  0  0  0
    3.2072    1.9591   -0.7347 H   0  0  0  0  0  0  0  0  0  0  0  0
    0.8314    1.2642   -0.7315 H   0  0  0  0  0  0  0  0  0  0  0  0
   -0.7133    2.7440    2.4900 H   0  0  0  0  0  0  0  0  0  0  0  0
    0.1016    1.3501    1.8116 H   0  0  0  0  0  0  0  0  0  0  0  0
   -4.8592    3.0159    0.9898 H   0  0  0  0  0  0  0  0  0  0  0  0
  1  2  1  0
  2  3  1  0
  3  4  2  0
  4  5  1  0
  5  6  2  0
  6  7  1  0
  7  8  2  0
  8  9  1  0
  9 10  2  0
 10 11  1  0
 11 12  2  0
 12 13  1  0
 13 14  2  0
  4 15  1  0
 15 16  2  0
 16 17  1  0
 16 18  1  0
 18 19  2  0
 19 20  1  0
 20 21  2  0
 21  2  1  0
 14  5  1  0
 21 15  1  0
 13  8  1  0
  1 22  1  0
  1 23  1  0
  1 24  1  0
  6 25  1  0
  7 26  1  0
  9 27  1  0
 10 28  1  0
 11 29  1  0
 12 30  1  0
 14 31  1  0
 17 32  1  0
 17 33  1  0
 19 34  1  0
M  END
$$$$
