UQMOAGGBXALCSZ-UXHICEINSA-N
     RDKit          3D

 68 70  0  0  0  0  0  0  0  0999 V2000
   -2.0639   -0.3551   -2.9534 C   0  0  0  0  0  0  0  0  0  0  0  0
   -1.1962    1.0189   -2.2291 S   0  0  0  0  0  0  0  0  0  0  0  0
   -1.2099    2.1093   -3.1751 O   0  0  0  0  0  0  0  0  0  0  0  0
    0.0349    0.5402   -1.6379 O   0  0  0  0  0  0  0  0  0  0  0  0
   -2.2489    1.4524   -0.9906 N   0  0  0  0  0  0  0  0  0  0  0  0
   -1.9810    0.8668    0.3521 C   0  0  2  0  0  0  0  0  0  0  0  0
   -3.2264    1.0231    1.2358 C   0  0  0  0  0  0  0  0  0  0  0  0
   -4.4765    0.2679    0.7350 C   0  0  0  0  0  0  0  0  0  0  0  0
   -5.6813    0.6213    1.6260 C   0  0  0  0  0  0  0  0  0  0  0  0
   -6.9456   -0.1207    1.2007 C   0  0  0  0  0  0  0  0  0  0  0  0
   -6.7248   -1.6286    1.1665 C   0  0  0  0  0  0  0  0  0  0  0  0
   -5.5377   -1.9960    0.2839 C   0  0  0  0  0  0  0  0  0  0  0  0
   -4.2679   -1.2550    0.7001 C   0  0  0  0  0  0  0  0  0  0  0  0
   -0.8258    1.6775    0.9727 C   0  0  0  0  0  0  0  0  0  0  0  0
   -0.8474    2.9113    0.9324 O   0  0  0  0  0  0  0  0  0  0  0  0
    0.2248    0.9917    1.5350 N   0  0  0  0  0  0  0  0  0  0  0  0
    0.3500   -0.4472    1.7157 C   0  0  0  0  0  0  0  0  0  0  0  0
    1.7261   -0.6495    2.3315 C   0  0  0  0  0  0  0  0  0  0  0  0
    1.9774    0.6614    3.0690 C   0  0  0  0  0  0  0  0  0  0  0  0
    1.3529    1.7066    2.1421 C   0  0  1  0  0  0  0  0  0  0  0  0
    2.4112    2.2182    1.1369 C   0  0  0  0  0  0  0  0  0  0  0  0
    3.3831    2.8759    1.5097 O   0  0  0  0  0  0  0  0  0  0  0  0
    2.2338    1.8208   -0.1657 N   0  0  0  0  0  0  0  0  0  0  0  0
    3.1693    2.1285   -1.2160 C   0  0  0  0  0  0  0  0  0  0  0  0
    4.1010    0.9660   -1.4428 C   0  0  0  0  0  0  0  0  0  0  0  0
    5.3148    0.8852   -0.7474 C   0  0  0  0  0  0  0  0  0  0  0  0
    6.1722   -0.2053   -0.9304 C   0  0  0  0  0  0  0  0  0  0  0  0
    5.8195   -1.2408   -1.8038 C   0  0  0  0  0  0  0  0  0  0  0  0
    6.7076   -2.4284   -2.0218 C   0  0  0  0  0  0  0  0  0  0  0  0
    6.4053   -3.2854   -2.9449 N   0  0  0  0  0  0  0  0  0  0  0  0
    7.8219   -2.6358   -1.2708 N   0  0  0  0  0  0  0  0  0  0  0  0
    4.6015   -1.1647   -2.4931 C   0  0  0  0  0  0  0  0  0  0  0  0
    3.7464   -0.0740   -2.3108 C   0  0  0  0  0  0  0  0  0  0  0  0
   -3.0491   -0.0192   -3.2824 H   0  0  0  0  0  0  0  0  0  0  0  0
   -2.1468   -1.1530   -2.2135 H   0  0  0  0  0  0  0  0  0  0  0  0
   -1.4839   -0.7035   -3.8106 H   0  0  0  0  0  0  0  0  0  0  0  0
   -2.3355    2.4768   -0.9580 H   0  0  0  0  0  0  0  0  0  0  0  0
   -1.7299   -0.1888    0.2480 H   0  0  0  0  0  0  0  0  0  0  0  0
   -3.4746    2.0902    1.3223 H   0  0  0  0  0  0  0  0  0  0  0  0
   -2.9845    0.6872    2.2533 H   0  0  0  0  0  0  0  0  0  0  0  0
   -4.7064    0.6062   -0.2841 H   0  0  0  0  0  0  0  0  0  0  0  0
   -5.4547    0.3767    2.6719 H   0  0  0  0  0  0  0  0  0  0  0  0
   -5.8702    1.7010    1.5865 H   0  0  0  0  0  0  0  0  0  0  0  0
   -7.2564    0.2271    0.2076 H   0  0  0  0  0  0  0  0  0  0  0  0
   -7.7624    0.1169    1.8918 H   0  0  0  0  0  0  0  0  0  0  0  0
   -6.5510   -1.9964    2.1852 H   0  0  0  0  0  0  0  0  0  0  0  0
   -7.6283   -2.1268    0.7966 H   0  0  0  0  0  0  0  0  0  0  0  0
   -5.7720   -1.7569   -0.7609 H   0  0  0  0  0  0  0  0  0  0  0  0
   -5.3642   -3.0770    0.3327 H   0  0  0  0  0  0  0  0  0  0  0  0
   -3.9500   -1.6089    1.6890 H   0  0  0  0  0  0  0  0  0  0  0  0
   -3.4716   -1.5187   -0.0035 H   0  0  0  0  0  0  0  0  0  0  0  0
    0.2477   -0.9718    0.7622 H   0  0  0  0  0  0  0  0  0  0  0  0
   -0.4485   -0.7731    2.3911 H   0  0  0  0  0  0  0  0  0  0  0  0
    2.4758   -0.7833    1.5423 H   0  0  0  0  0  0  0  0  0  0  0  0
    1.7673   -1.5225    2.9888 H   0  0  0  0  0  0  0  0  0  0  0  0
    3.0403    0.8220    3.2726 H   0  0  0  0  0  0  0  0  0  0  0  0
    1.4426    0.6476    4.0269 H   0  0  0  0  0  0  0  0  0  0  0  0
    0.9875    2.5770    2.6989 H   0  0  0  0  0  0  0  0  0  0  0  0
    1.4130    1.2751   -0.4179 H   0  0  0  0  0  0  0  0  0  0  0  0
    3.7347    3.0354   -0.9737 H   0  0  0  0  0  0  0  0  0  0  0  0
    2.5947    2.3388   -2.1249 H   0  0  0  0  0  0  0  0  0  0  0  0
    5.5940    1.6765   -0.0523 H   0  0  0  0  0  0  0  0  0  0  0  0
    7.1081   -0.2127   -0.3847 H   0  0  0  0  0  0  0  0  0  0  0  0
    7.1058   -4.0271   -2.9651 H   0  0  0  0  0  0  0  0  0  0  0  0
    8.4212   -3.4318   -1.4339 H   0  0  0  0  0  0  0  0  0  0  0  0
    8.0756   -2.0359   -0.4995 H   0  0  0  0  0  0  0  0  0  0  0  0
    4.3113   -1.9606   -3.1761 H   0  0  0  0  0  0  0  0  0  0  0  0
    2.8002   -0.0430   -2.8474 H   0  0  0  0  0  0  0  0  0  0  0  0
  1  2  1  0
  2  3  2  0
  2  4  2  0
  2  5  1  0
  5  6  1  0
  6  7  1  0
  7  8  1  0
  8  9  1  0
  9 10  1  0
 10 11  1  0
 11 12  1  0
 12 13  1  0
  6 14  1  0
 14 15  2  0
 14 16  1  0
 16 17  1  0
 17 18  1  0
 18 19  1  0
 19 20  1  0
 20 21  1  0
 21 22  2  0
 21 23  1  0
 23 24  1  0
 24 25  1  0
 25 26  2  0
 26 27  1  0
 27 28  2  0
 28 29  1  0
 29 30  2  3
 29 31  1  0
 28 32  1  0
 32 33  2  0
 13  8  1  0
 20 16  1  0
 33 25  1  0
  1 34  1  0
  1 35  1  0
  1 36  1  0
  5 37  1  0
  6 38  1  6
  7 39  1  0
  7 40  1  0
  8 41  1  0
  9 42  1  0
  9 43  1  0
 10 44  1  0
 10 45  1  0
 11 46  1  0
 11 47  1  0
 12 48  1  0
 12 49  1  0
 13 50  1  0
 13 51  1  0
 17 52  1  0
 17 53  1  0
 18 54  1  0
 18 55  1  0
 19 56  1  0
 19 57  1  0
 20 58  1  1
 23 59  1  0
 24 60  1  0
 24 61  1  0
 26 62  1  0
 27 63  1  0
 30 64  1  0
 31 65  1  0
 31 66  1  0
 32 67  1  0
 33 68  1  0
M  END
$$$$
