VAHCPZHCLNBIBJ-UHFFFAOYSA-N
     RDKit          3D

 48 51  0  0  0  0  0  0  0  0999 V2000
   -4.0033    4.3873    1.9321 C   0  0  0  0  0  0  0  0  0  0  0  0
   -3.1467    3.3946    1.3815 O   0  0  0  0  0  0  0  0  0  0  0  0
   -3.7056    2.5069    0.5045 C   0  0  0  0  0  0  0  0  0  0  0  0
   -5.0412    2.4840    0.1023 C   0  0  0  0  0  0  0  0  0  0  0  0
   -5.4784    1.5163   -0.8043 C   0  0  0  0  0  0  0  0  0  0  0  0
   -4.5811    0.5759   -1.3055 C   0  0  0  0  0  0  0  0  0  0  0  0
   -5.0420   -0.3375   -2.1754 F   0  0  0  0  0  0  0  0  0  0  0  0
   -3.2370    0.5745   -0.9205 C   0  0  0  0  0  0  0  0  0  0  0  0
   -2.2727   -0.4029   -1.4320 C   0  0  0  0  0  0  0  0  0  0  0  0
   -0.9892   -0.4679   -1.1148 N   0  0  0  0  0  0  0  0  0  0  0  0
   -0.4627   -1.5344   -1.8209 C   0  0  0  0  0  0  0  0  0  0  0  0
    0.8503   -2.0677   -1.8764 C   0  0  0  0  0  0  0  0  0  0  0  0
    1.9440   -1.6065   -1.1363 N   0  0  0  0  0  0  0  0  0  0  0  0
    1.8199   -0.5011   -0.2020 C   0  0  0  0  0  0  0  0  0  0  0  0
    3.1511   -0.2685    0.5302 C   0  0  0  0  0  0  0  0  0  0  0  0
    3.5192   -1.4526    1.4395 C   0  0  0  0  0  0  0  0  0  0  0  0
    4.7742   -1.1534    2.2578 C   0  0  0  0  0  0  0  0  0  0  0  0
    4.6321    0.0715    3.0468 N   0  0  0  0  0  0  0  0  0  0  0  0
    4.3545    1.2205    2.1840 C   0  0  0  0  0  0  0  0  0  0  0  0
    3.0812    1.0194    1.3649 C   0  0  0  0  0  0  0  0  0  0  0  0
    0.9813   -3.1916   -2.7257 C   0  0  0  0  0  0  0  0  0  0  0  0
    2.5099   -3.9852   -2.9156 Cl  0  0  0  0  0  0  0  0  0  0  0  0
   -0.1137   -3.6823   -3.4406 C   0  0  0  0  0  0  0  0  0  0  0  0
   -1.3726   -3.1797   -3.4106 N   0  0  0  0  0  0  0  0  0  0  0  0
   -1.4603   -2.1232   -2.5857 C   0  0  0  0  0  0  0  0  0  0  0  0
   -2.5859   -1.4004   -2.3284 N   0  0  0  0  0  0  0  0  0  0  0  0
   -2.8155    1.5544   -0.0083 C   0  0  0  0  0  0  0  0  0  0  0  0
   -4.8047    3.9326    2.5237 H   0  0  0  0  0  0  0  0  0  0  0  0
   -4.4087    5.0367    1.1493 H   0  0  0  0  0  0  0  0  0  0  0  0
   -3.4050    5.0097    2.6044 H   0  0  0  0  0  0  0  0  0  0  0  0
   -5.7647    3.2021    0.4741 H   0  0  0  0  0  0  0  0  0  0  0  0
   -6.5159    1.4894   -1.1239 H   0  0  0  0  0  0  0  0  0  0  0  0
    2.8636   -1.8337   -1.5008 H   0  0  0  0  0  0  0  0  0  0  0  0
    1.0359   -0.7100    0.5359 H   0  0  0  0  0  0  0  0  0  0  0  0
    1.5472    0.4091   -0.7495 H   0  0  0  0  0  0  0  0  0  0  0  0
    3.9489   -0.1485   -0.2163 H   0  0  0  0  0  0  0  0  0  0  0  0
    3.6907   -2.3544    0.8404 H   0  0  0  0  0  0  0  0  0  0  0  0
    2.6861   -1.6756    2.1189 H   0  0  0  0  0  0  0  0  0  0  0  0
    4.9724   -1.9894    2.9377 H   0  0  0  0  0  0  0  0  0  0  0  0
    5.6478   -1.0724    1.5995 H   0  0  0  0  0  0  0  0  0  0  0  0
    3.8580   -0.0462    3.7011 H   0  0  0  0  0  0  0  0  0  0  0  0
    5.2091    1.4038    1.5215 H   0  0  0  0  0  0  0  0  0  0  0  0
    4.2472    2.1135    2.8094 H   0  0  0  0  0  0  0  0  0  0  0  0
    2.2156    0.9819    2.0393 H   0  0  0  0  0  0  0  0  0  0  0  0
    2.9336    1.8839    0.7066 H   0  0  0  0  0  0  0  0  0  0  0  0
    0.0027   -4.5445   -4.0941 H   0  0  0  0  0  0  0  0  0  0  0  0
   -3.4952   -1.5739   -2.7299 H   0  0  0  0  0  0  0  0  0  0  0  0
   -1.7743    1.5800    0.3118 H   0  0  0  0  0  0  0  0  0  0  0  0
  1  2  1  0
  2  3  1  0
  3  4  2  0
  4  5  1  0
  5  6  2  0
  6  7  1  0
  6  8  1  0
  8  9  1  0
  9 10  2  0
 10 11  1  0
 11 12  2  0
 12 13  1  0
 13 14  1  0
 14 15  1  0
 15 16  1  0
 16 17  1  0
 17 18  1  0
 18 19  1  0
 19 20  1  0
 12 21  1  0
 21 22  1  0
 21 23  2  0
 23 24  1  0
 24 25  2  0
 25 26  1  0
  8 27  2  0
 27  3  1  0
 26  9  1  0
 25 11  1  0
 20 15  1  0
  1 28  1  0
  1 29  1  0
  1 30  1  0
  4 31  1  0
  5 32  1  0
 13 33  1  0
 14 34  1  0
 14 35  1  0
 15 36  1  0
 16 37  1  0
 16 38  1  0
 17 39  1  0
 17 40  1  0
 18 41  1  0
 19 42  1  0
 19 43  1  0
 20 44  1  0
 20 45  1  0
 23 46  1  0
 26 47  1  0
 27 48  1  0
M  END
$$$$
