XSFGXVBMHUSTNL-UHFFFAOYSA-N
     RDKit          3D

 44 47  0  0  0  0  0  0  0  0999 V2000
   -7.3914    1.0532   -0.4053 C   0  0  0  0  0  0  0  0  0  0  0  0
   -6.3405   -0.0264   -0.5763 C   0  0  0  0  0  0  0  0  0  0  0  0
   -5.0567    0.5578   -0.3324 O   0  0  0  0  0  0  0  0  0  0  0  0
   -4.0094   -0.3100   -0.4576 C   0  0  0  0  0  0  0  0  0  0  0  0
   -4.1322   -1.4931   -0.7516 O   0  0  0  0  0  0  0  0  0  0  0  0
   -2.7179    0.3274   -0.1941 C   0  0  0  0  0  0  0  0  0  0  0  0
   -2.5461    1.6439    0.1939 C   0  0  0  0  0  0  0  0  0  0  0  0
   -1.2160    1.8924    0.3477 N   0  0  0  0  0  0  0  0  0  0  0  0
   -0.6985    3.0823    0.6739 N   0  0  0  0  0  0  0  0  0  0  0  0
    0.5913    3.0781    0.7657 C   0  0  0  0  0  0  0  0  0  0  0  0
    1.4213    2.0060    0.5909 N   0  0  0  0  0  0  0  0  0  0  0  0
    0.9368    0.8383    0.2817 C   0  0  0  0  0  0  0  0  0  0  0  0
    1.7442   -0.2742    0.1651 N   0  0  0  0  0  0  0  0  0  0  0  0
    3.1475   -0.3734    0.0745 C   0  0  0  0  0  0  0  0  0  0  0  0
    3.7378   -1.6315    0.3012 C   0  0  0  0  0  0  0  0  0  0  0  0
    5.1244   -1.8375    0.2523 C   0  0  0  0  0  0  0  0  0  0  0  0
    5.9145   -0.7248   -0.0334 C   0  0  0  0  0  0  0  0  0  0  0  0
    7.2707   -0.5715   -0.1548 N   0  0  0  0  0  0  0  0  0  0  0  0
    7.6584    0.6828   -0.4475 N   0  0  0  0  0  0  0  0  0  0  0  0
    6.5056    1.3550   -0.5101 C   0  0  0  0  0  0  0  0  0  0  0  0
    5.3817    0.5362   -0.2617 C   0  0  0  0  0  0  0  0  0  0  0  0
    3.9860    0.7166   -0.2058 C   0  0  0  0  0  0  0  0  0  0  0  0
   -0.4985    0.7551    0.1115 C   0  0  0  0  0  0  0  0  0  0  0  0
   -1.3909   -0.2431   -0.2817 C   0  0  0  0  0  0  0  0  0  0  0  0
   -1.0868   -1.6423   -0.7315 C   0  0  0  0  0  0  0  0  0  0  0  0
   -1.0991   -2.6400    0.4168 C   0  0  0  0  0  0  0  0  0  0  0  0
   -8.3939    0.6532   -0.5809 H   0  0  0  0  0  0  0  0  0  0  0  0
   -7.3503    1.4748    0.6046 H   0  0  0  0  0  0  0  0  0  0  0  0
   -7.2128    1.8787   -1.1023 H   0  0  0  0  0  0  0  0  0  0  0  0
   -6.5215   -0.8350    0.1408 H   0  0  0  0  0  0  0  0  0  0  0  0
   -6.3800   -0.4217   -1.5976 H   0  0  0  0  0  0  0  0  0  0  0  0
   -3.2654    2.4330    0.3664 H   0  0  0  0  0  0  0  0  0  0  0  0
    1.0903    4.0287    1.0206 H   0  0  0  0  0  0  0  0  0  0  0  0
    1.2780   -1.1667    0.1834 H   0  0  0  0  0  0  0  0  0  0  0  0
    3.1095   -2.4904    0.5324 H   0  0  0  0  0  0  0  0  0  0  0  0
    5.5535   -2.8171    0.4334 H   0  0  0  0  0  0  0  0  0  0  0  0
    7.9853   -1.2827   -0.0524 H   0  0  0  0  0  0  0  0  0  0  0  0
    6.5263    2.4137   -0.7338 H   0  0  0  0  0  0  0  0  0  0  0  0
    3.5842    1.7044   -0.4006 H   0  0  0  0  0  0  0  0  0  0  0  0
   -1.8105   -1.9570   -1.4917 H   0  0  0  0  0  0  0  0  0  0  0  0
   -0.1195   -1.6734   -1.2436 H   0  0  0  0  0  0  0  0  0  0  0  0
   -0.8589   -3.6427    0.0494 H   0  0  0  0  0  0  0  0  0  0  0  0
   -2.0832   -2.6817    0.8956 H   0  0  0  0  0  0  0  0  0  0  0  0
   -0.3673   -2.3755    1.1870 H   0  0  0  0  0  0  0  0  0  0  0  0
  1  2  1  0
  2  3  1  0
  3  4  1  0
  4  5  2  0
  4  6  1  0
  6  7  2  0
  7  8  1  0
  8  9  1  0
  9 10  2  0
 10 11  1  0
 11 12  2  0
 12 13  1  0
 13 14  1  0
 14 15  2  0
 15 16  1  0
 16 17  2  0
 17 18  1  0
 18 19  1  0
 19 20  2  0
 20 21  1  0
 21 22  2  0
 12 23  1  0
 23 24  2  0
 24 25  1  0
 25 26  1  0
 24  6  1  0
 23  8  1  0
 22 14  1  0
 21 17  1  0
  1 27  1  0
  1 28  1  0
  1 29  1  0
  2 30  1  0
  2 31  1  0
  7 32  1  0
 10 33  1  0
 13 34  1  0
 15 35  1  0
 16 36  1  0
 18 37  1  0
 20 38  1  0
 22 39  1  0
 25 40  1  0
 25 41  1  0
 26 42  1  0
 26 43  1  0
 26 44  1  0
M  END
$$$$
