XYJPAVSBBNRJDP-UHFFFAOYSA-N
     RDKit          3D

 84 87  0  0  0  0  0  0  0  0999 V2000
    8.6482    3.3247    1.7279 C   0  0  0  0  0  0  0  0  0  0  0  0
    9.0078    2.0551    2.2573 O   0  0  0  0  0  0  0  0  0  0  0  0
    8.6896    0.9565    1.5008 C   0  0  0  0  0  0  0  0  0  0  0  0
    7.6932    0.9349    0.5233 C   0  0  0  0  0  0  0  0  0  0  0  0
    7.4350   -0.2473   -0.1851 C   0  0  0  0  0  0  0  0  0  0  0  0
    6.3850   -0.3120   -1.2379 C   0  0  0  0  0  0  0  0  0  0  0  0
    6.5242   -1.0678   -2.1918 O   0  0  0  0  0  0  0  0  0  0  0  0
    5.2765    0.4865   -1.0507 N   0  0  0  0  0  0  0  0  0  0  0  0
    4.2030    0.5357   -2.0243 C   0  0  0  0  0  0  0  0  0  0  0  0
    3.1562   -0.5449   -1.7598 C   0  0  0  0  0  0  0  0  0  0  0  0
    2.0741   -0.6142   -2.8411 C   0  0  0  0  0  0  0  0  0  0  0  0
    1.2635    0.6690   -3.0493 C   0  0  0  0  0  0  0  0  0  0  0  0
    0.5104    1.1811   -1.8181 C   0  0  0  0  0  0  0  0  0  0  0  0
   -0.5729    0.2162   -1.3289 C   0  0  0  0  0  0  0  0  0  0  0  0
   -1.3767    0.8286   -0.1768 C   0  0  0  0  0  0  0  0  0  0  0  0
   -2.5186   -0.0747    0.2876 C   0  0  0  0  0  0  0  0  0  0  0  0
   -3.7090   -0.0781   -0.6531 C   0  0  0  0  0  0  0  0  0  0  0  0
   -3.7725    0.5726   -1.6934 O   0  0  0  0  0  0  0  0  0  0  0  0
   -4.7359   -0.8902   -0.2084 N   0  0  0  0  0  0  0  0  0  0  0  0
   -5.9064   -0.9383   -0.9734 N   0  0  0  0  0  0  0  0  0  0  0  0
   -7.0799   -0.6836   -0.2160 C   0  0  0  0  0  0  0  0  0  0  0  0
   -7.6594    0.6130   -0.2275 C   0  0  0  0  0  0  0  0  0  0  0  0
   -8.7337    0.8976    0.6376 C   0  0  0  0  0  0  0  0  0  0  0  0
   -9.2405   -0.1100    1.4709 C   0  0  0  0  0  0  0  0  0  0  0  0
   -8.6916   -1.3979    1.4859 C   0  0  0  0  0  0  0  0  0  0  0  0
   -9.2193   -2.3846    2.3371 C   0  0  0  0  0  0  0  0  0  0  0  0
   -8.6920   -3.6749    2.3558 C   0  0  0  0  0  0  0  0  0  0  0  0
   -7.6343   -3.9972    1.5172 C   0  0  0  0  0  0  0  0  0  0  0  0
   -7.0992   -3.0241    0.6702 C   0  0  0  0  0  0  0  0  0  0  0  0
   -7.6027   -1.7016    0.6390 C   0  0  0  0  0  0  0  0  0  0  0  0
   -9.4006    2.2527    0.6702 C   0  0  0  0  0  0  0  0  0  0  0  0
   -8.5349    3.3639    0.0876 C   0  0  0  0  0  0  0  0  0  0  0  0
   -7.9807    2.9324   -1.2595 C   0  0  0  0  0  0  0  0  0  0  0  0
   -7.0785    1.7097   -1.1003 C   0  0  0  0  0  0  0  0  0  0  0  0
    8.1911   -1.4032    0.0591 C   0  0  0  0  0  0  0  0  0  0  0  0
    9.1874   -1.3984    1.0351 C   0  0  0  0  0  0  0  0  0  0  0  0
    9.9732   -2.4753    1.3549 O   0  0  0  0  0  0  0  0  0  0  0  0
    9.9350   -3.5913    0.4741 C   0  0  0  0  0  0  0  0  0  0  0  0
    9.4092   -0.2212    1.7706 C   0  0  0  0  0  0  0  0  0  0  0  0
   10.4191   -0.1914    2.7072 O   0  0  0  0  0  0  0  0  0  0  0  0
    9.9076   -0.5712    3.9832 C   0  0  0  0  0  0  0  0  0  0  0  0
    8.9957    3.4429    0.6962 H   0  0  0  0  0  0  0  0  0  0  0  0
    7.5679    3.4838    1.8013 H   0  0  0  0  0  0  0  0  0  0  0  0
    9.1391    4.0913    2.3354 H   0  0  0  0  0  0  0  0  0  0  0  0
    7.1285    1.8297    0.2908 H   0  0  0  0  0  0  0  0  0  0  0  0
    5.1612    1.0046   -0.1913 H   0  0  0  0  0  0  0  0  0  0  0  0
    4.6257    0.4232   -3.0293 H   0  0  0  0  0  0  0  0  0  0  0  0
    3.7615    1.5345   -1.9494 H   0  0  0  0  0  0  0  0  0  0  0  0
    3.6500   -1.5240   -1.7091 H   0  0  0  0  0  0  0  0  0  0  0  0
    2.7013   -0.3894   -0.7743 H   0  0  0  0  0  0  0  0  0  0  0  0
    2.5487   -0.8768   -3.7953 H   0  0  0  0  0  0  0  0  0  0  0  0
    1.3959   -1.4427   -2.6060 H   0  0  0  0  0  0  0  0  0  0  0  0
    1.9270    1.4639   -3.4093 H   0  0  0  0  0  0  0  0  0  0  0  0
    0.5423    0.4932   -3.8576 H   0  0  0  0  0  0  0  0  0  0  0  0
    0.0397    2.1358   -2.0856 H   0  0  0  0  0  0  0  0  0  0  0  0
    1.2120    1.4011   -1.0056 H   0  0  0  0  0  0  0  0  0  0  0  0
   -1.2376   -0.0332   -2.1635 H   0  0  0  0  0  0  0  0  0  0  0  0
   -0.1172   -0.7203   -0.9882 H   0  0  0  0  0  0  0  0  0  0  0  0
   -0.7002    0.9996    0.6700 H   0  0  0  0  0  0  0  0  0  0  0  0
   -1.7701    1.8086   -0.4734 H   0  0  0  0  0  0  0  0  0  0  0  0
   -2.8773    0.2826    1.2608 H   0  0  0  0  0  0  0  0  0  0  0  0
   -2.1678   -1.1045    0.4217 H   0  0  0  0  0  0  0  0  0  0  0  0
   -4.7237   -1.4017    0.6680 H   0  0  0  0  0  0  0  0  0  0  0  0
   -5.8219   -0.4412   -1.8629 H   0  0  0  0  0  0  0  0  0  0  0  0
  -10.0832    0.1200    2.1215 H   0  0  0  0  0  0  0  0  0  0  0  0
  -10.0549   -2.1536    2.9943 H   0  0  0  0  0  0  0  0  0  0  0  0
   -9.1159   -4.4271    3.0161 H   0  0  0  0  0  0  0  0  0  0  0  0
   -7.2287   -5.0054    1.5106 H   0  0  0  0  0  0  0  0  0  0  0  0
   -6.2880   -3.3111    0.0041 H   0  0  0  0  0  0  0  0  0  0  0  0
   -9.6596    2.5172    1.7028 H   0  0  0  0  0  0  0  0  0  0  0  0
  -10.3372    2.1839    0.1019 H   0  0  0  0  0  0  0  0  0  0  0  0
   -7.7085    3.5962    0.7711 H   0  0  0  0  0  0  0  0  0  0  0  0
   -9.1307    4.2769   -0.0221 H   0  0  0  0  0  0  0  0  0  0  0  0
   -7.4133    3.7511   -1.7163 H   0  0  0  0  0  0  0  0  0  0  0  0
   -8.8092    2.6975   -1.9401 H   0  0  0  0  0  0  0  0  0  0  0  0
   -6.1274    2.0264   -0.6549 H   0  0  0  0  0  0  0  0  0  0  0  0
   -6.8717    1.3262   -2.1057 H   0  0  0  0  0  0  0  0  0  0  0  0
    7.9735   -2.2928   -0.5251 H   0  0  0  0  0  0  0  0  0  0  0  0
    8.9653   -4.0971    0.5266 H   0  0  0  0  0  0  0  0  0  0  0  0
   10.1736   -3.2975   -0.5538 H   0  0  0  0  0  0  0  0  0  0  0  0
   10.6990   -4.3026    0.8028 H   0  0  0  0  0  0  0  0  0  0  0  0
   10.7423   -0.5716    4.6908 H   0  0  0  0  0  0  0  0  0  0  0  0
    9.4830   -1.5810    3.9634 H   0  0  0  0  0  0  0  0  0  0  0  0
    9.1613    0.1470    4.3405 H   0  0  0  0  0  0  0  0  0  0  0  0
  1  2  1  0
  2  3  1  0
  3  4  2  0
  4  5  1  0
  5  6  1  0
  6  7  2  0
  6  8  1  0
  8  9  1  0
  9 10  1  0
 10 11  1  0
 11 12  1  0
 12 13  1  0
 13 14  1  0
 14 15  1  0
 15 16  1  0
 16 17  1  0
 17 18  2  0
 17 19  1  0
 19 20  1  0
 20 21  1  0
 21 22  2  0
 22 23  1  0
 23 24  2  0
 24 25  1  0
 25 26  2  0
 26 27  1  0
 27 28  2  0
 28 29  1  0
 29 30  2  0
 23 31  1  0
 31 32  1  0
 32 33  1  0
 33 34  1  0
  5 35  2  0
 35 36  1  0
 36 37  1  0
 37 38  1  0
 36 39  2  0
 39 40  1  0
 40 41  1  0
 39  3  1  0
 30 21  1  0
 34 22  1  0
 30 25  1  0
  1 42  1  0
  1 43  1  0
  1 44  1  0
  4 45  1  0
  8 46  1  0
  9 47  1  0
  9 48  1  0
 10 49  1  0
 10 50  1  0
 11 51  1  0
 11 52  1  0
 12 53  1  0
 12 54  1  0
 13 55  1  0
 13 56  1  0
 14 57  1  0
 14 58  1  0
 15 59  1  0
 15 60  1  0
 16 61  1  0
 16 62  1  0
 19 63  1  0
 20 64  1  0
 24 65  1  0
 26 66  1  0
 27 67  1  0
 28 68  1  0
 29 69  1  0
 31 70  1  0
 31 71  1  0
 32 72  1  0
 32 73  1  0
 33 74  1  0
 33 75  1  0
 34 76  1  0
 34 77  1  0
 35 78  1  0
 38 79  1  0
 38 80  1  0
 38 81  1  0
 41 82  1  0
 41 83  1  0
 41 84  1  0
M  END
$$$$
