ZERSZVIQLKNOSD-UHFFFAOYSA-N
     RDKit          3D

 50 52  0  0  0  0  0  0  0  0999 V2000
   -6.5451   -1.2094   -1.1709 C   0  0  0  0  0  0  0  0  0  0  0  0
   -5.7540    0.0057   -0.7020 C   0  0  0  0  0  0  0  0  0  0  0  0
   -4.6633    0.3508   -1.7112 C   0  0  0  0  0  0  0  0  0  0  0  0
   -5.1595   -0.3367    0.5529 O   0  0  0  0  0  0  0  0  0  0  0  0
   -4.8936    0.7893    1.4002 C   0  0  0  0  0  0  0  0  0  0  0  0
   -3.8442    0.3617    2.4371 C   0  0  0  0  0  0  0  0  0  0  0  0
   -2.4494    0.3322    1.8498 C   0  0  0  0  0  0  0  0  0  0  0  0
   -2.0095   -0.7763    1.1162 C   0  0  0  0  0  0  0  0  0  0  0  0
   -0.7302   -0.7987    0.5500 C   0  0  0  0  0  0  0  0  0  0  0  0
    0.1250    0.2910    0.7098 C   0  0  0  0  0  0  0  0  0  0  0  0
    1.3934    0.4033    0.2120 O   0  0  0  0  0  0  0  0  0  0  0  0
    1.9005   -0.7047   -0.5393 C   0  0  0  0  0  0  0  0  0  0  0  0
    3.2931   -0.4465   -1.0051 C   0  0  0  0  0  0  0  0  0  0  0  0
    3.5664    0.0942   -2.2015 N   0  0  0  0  0  0  0  0  0  0  0  0
    4.9616    0.1501   -2.2136 O   0  0  0  0  0  0  0  0  0  0  0  0
    5.3886   -0.3751   -1.0247 C   0  0  0  0  0  0  0  0  0  0  0  0
    6.8282   -0.4276   -0.7970 C   0  0  0  0  0  0  0  0  0  0  0  0
    7.3181   -0.9498    0.4106 C   0  0  0  0  0  0  0  0  0  0  0  0
    8.6915   -1.0147    0.6591 C   0  0  0  0  0  0  0  0  0  0  0  0
    9.5942   -0.5575   -0.2979 C   0  0  0  0  0  0  0  0  0  0  0  0
    9.1258   -0.0357   -1.5018 C   0  0  0  0  0  0  0  0  0  0  0  0
    7.7515    0.0293   -1.7504 C   0  0  0  0  0  0  0  0  0  0  0  0
    4.3983   -0.7687   -0.2525 N   0  0  0  0  0  0  0  0  0  0  0  0
   -0.3128    1.3995    1.4381 C   0  0  0  0  0  0  0  0  0  0  0  0
   -1.5898    1.4249    2.0033 C   0  0  0  0  0  0  0  0  0  0  0  0
   -6.1541    1.2577    2.1333 C   0  0  0  0  0  0  0  0  0  0  0  0
   -7.2694    0.7633    2.0872 O   0  0  0  0  0  0  0  0  0  0  0  0
   -5.9526    2.3785    2.8614 O   0  0  0  0  0  0  0  0  0  0  0  0
   -5.8976   -2.0879   -1.2684 H   0  0  0  0  0  0  0  0  0  0  0  0
   -7.3158   -1.4672   -0.4363 H   0  0  0  0  0  0  0  0  0  0  0  0
   -7.0307   -1.0217   -2.1334 H   0  0  0  0  0  0  0  0  0  0  0  0
   -6.4428    0.8509   -0.5881 H   0  0  0  0  0  0  0  0  0  0  0  0
   -4.0972    1.2324   -1.3951 H   0  0  0  0  0  0  0  0  0  0  0  0
   -3.9412   -0.4683   -1.8020 H   0  0  0  0  0  0  0  0  0  0  0  0
   -5.0885    0.5548   -2.6988 H   0  0  0  0  0  0  0  0  0  0  0  0
   -4.5279    1.6322    0.8011 H   0  0  0  0  0  0  0  0  0  0  0  0
   -4.0804   -0.6358    2.8313 H   0  0  0  0  0  0  0  0  0  0  0  0
   -3.8397    1.0334    3.3045 H   0  0  0  0  0  0  0  0  0  0  0  0
   -2.6701   -1.6303    0.9729 H   0  0  0  0  0  0  0  0  0  0  0  0
   -0.4435   -1.6825   -0.0092 H   0  0  0  0  0  0  0  0  0  0  0  0
    1.9107   -1.6038    0.0895 H   0  0  0  0  0  0  0  0  0  0  0  0
    1.2610   -0.8851   -1.4127 H   0  0  0  0  0  0  0  0  0  0  0  0
    6.6252   -1.3102    1.1699 H   0  0  0  0  0  0  0  0  0  0  0  0
    9.0538   -1.4214    1.5999 H   0  0  0  0  0  0  0  0  0  0  0  0
   10.6630   -0.6071   -0.1052 H   0  0  0  0  0  0  0  0  0  0  0  0
    9.8299    0.3221   -2.2491 H   0  0  0  0  0  0  0  0  0  0  0  0
    7.4141    0.4423   -2.6990 H   0  0  0  0  0  0  0  0  0  0  0  0
    0.3480    2.2538    1.5659 H   0  0  0  0  0  0  0  0  0  0  0  0
   -1.9036    2.3035    2.5622 H   0  0  0  0  0  0  0  0  0  0  0  0
   -6.8353    2.5659    3.2469 H   0  0  0  0  0  0  0  0  0  0  0  0
  1  2  1  0
  2  3  1  0
  2  4  1  0
  4  5  1  0
  5  6  1  0
  6  7  1  0
  7  8  2  0
  8  9  1  0
  9 10  2  0
 10 11  1  0
 11 12  1  0
 12 13  1  0
 13 14  2  0
 14 15  1  0
 15 16  1  0
 16 17  1  0
 17 18  2  0
 18 19  1  0
 19 20  2  0
 20 21  1  0
 21 22  2  0
 16 23  2  0
 10 24  1  0
 24 25  2  0
  5 26  1  0
 26 27  2  0
 26 28  1  0
 25  7  1  0
 23 13  1  0
 22 17  1  0
  1 29  1  0
  1 30  1  0
  1 31  1  0
  2 32  1  0
  3 33  1  0
  3 34  1  0
  3 35  1  0
  5 36  1  0
  6 37  1  0
  6 38  1  0
  8 39  1  0
  9 40  1  0
 12 41  1  0
 12 42  1  0
 18 43  1  0
 19 44  1  0
 20 45  1  0
 21 46  1  0
 22 47  1  0
 24 48  1  0
 25 49  1  0
 28 50  1  0
M  END
$$$$
