FXTPMBKUURJDKQ-UHFFFAOYSA-N
     RDKit          3D

 25 27  0  0  0  0  0  0  0  0999 V2000
    2.9830  -25.7900   21.3730 C   0  0  0  0  0  0  0  0  0  0  0  0
    3.9930  -26.6510   22.0830 C   0  0  0  0  0  0  0  0  0  0  0  0
    3.8480  -28.0500   22.0370 C   0  0  0  0  0  0  0  0  0  0  0  0
    4.7580  -28.8860   22.6840 C   0  0  0  0  0  0  0  0  0  0  0  0
    5.8310  -28.3340   23.3750 C   0  0  0  0  0  0  0  0  0  0  0  0
    5.9850  -26.9510   23.4210 C   0  0  0  0  0  0  0  0  0  0  0  0
    7.0590  -26.4650   24.0610 F   0  0  0  0  0  0  0  0  0  0  0  0
    5.0770  -26.0820   22.7890 C   0  0  0  0  0  0  0  0  0  0  0  0
    5.2080  -24.6730   22.8310 N   0  0  0  0  0  0  0  0  0  0  0  0
    5.7940  -23.7730   21.9360 C   0  0  0  0  0  0  0  0  0  0  0  0
    4.8800  -23.0380   21.2600 N   0  0  0  0  0  0  0  0  0  0  0  0
    5.3000  -22.1980   20.3000 C   0  0  0  0  0  0  0  0  0  0  0  0
    4.4000  -21.4340   19.5570 N   0  0  0  0  0  0  0  0  0  0  0  0
    4.0500  -20.1390   19.6570 C   0  0  0  0  0  0  0  0  0  0  0  0
    4.3820  -19.0320   18.8490 C   0  0  0  0  0  0  0  0  0  0  0  0
    3.8240  -17.8970   19.2870 N   0  0  0  0  0  0  0  0  0  0  0  0
    3.1400  -18.2880   20.3790 N   0  0  0  0  0  0  0  0  0  0  0  0
    2.3960  -17.3090   21.1360 C   0  0  0  0  0  0  0  0  0  0  0  0
    3.2440  -19.6230   20.6420 C   0  0  0  0  0  0  0  0  0  0  0  0
    6.5900  -22.0280   19.9900 N   0  0  0  0  0  0  0  0  0  0  0  0
    7.4870  -22.7320   20.7120 C   0  0  0  0  0  0  0  0  0  0  0  0
    7.1510  -23.6060   21.7250 C   0  0  0  0  0  0  0  0  0  0  0  0
    8.2610  -24.1820   22.5060 C   0  0  0  0  0  0  0  0  0  0  0  0
    8.5710  -23.6100   23.7060 N   0  0  0  0  0  0  0  0  0  0  0  0
    8.9400  -25.0990   22.0580 O   0  0  0  0  0  0  0  0  0  0  0  0
  1  2  1  0
  2  3  2  0
  3  4  1  0
  4  5  2  0
  5  6  1  0
  6  7  1  0
  6  8  2  0
  8  9  1  0
  9 10  1  0
 10 11  2  0
 11 12  1  0
 12 13  1  0
 13 14  1  0
 14 15  1  0
 15 16  2  0
 16 17  1  0
 17 18  1  0
 17 19  1  0
 12 20  2  0
 20 21  1  0
 21 22  2  0
 22 23  1  0
 23 24  1  0
 23 25  2  0
  8  2  1  0
 22 10  1  0
 19 14  2  0
M  END
$$$$
