GLNRSAJLZFLIFA-UHFFFAOYSA-N
     RDKit          3D

 23 26  0  0  0  0  0  0  0  0999 V2000
   15.7410   35.9600   18.1790 C   0  0  0  0  0  0  0  0  0  0  0  0
   14.5850   35.4210   17.6170 C   0  0  0  0  0  0  0  0  0  0  0  0
   14.6190   34.8600   16.3360 C   0  0  0  0  0  0  0  0  0  0  0  0
   15.8130   34.8380   15.6130 C   0  0  0  0  0  0  0  0  0  0  0  0
   15.9860   34.3240   14.3570 O   0  0  0  0  0  0  0  0  0  0  0  0
   17.2040   34.6510   13.6870 C   0  0  0  0  0  0  0  0  0  0  0  0
   17.2860   33.7850   12.4850 C   0  0  0  0  0  0  0  0  0  0  0  0
   17.6800   32.5320   12.3760 N   0  0  0  0  0  0  0  0  0  0  0  0
   17.5840   32.2070   11.0410 N   0  0  0  0  0  0  0  0  0  0  0  0
   17.1490   33.2880   10.4250 C   0  0  0  0  0  0  0  0  0  0  0  0
   16.8730   33.4980    8.9830 C   0  0  0  0  0  0  0  0  0  0  0  0
   16.5610   32.2270    8.2580 C   0  0  0  0  0  0  0  0  0  0  0  0
   15.3590   31.7510    7.9970 N   0  0  0  0  0  0  0  0  0  0  0  0
   15.5640   30.5610    7.3410 C   0  0  0  0  0  0  0  0  0  0  0  0
   14.6330   29.6450    6.8310 C   0  0  0  0  0  0  0  0  0  0  0  0
   15.1050   28.4910    6.1940 C   0  0  0  0  0  0  0  0  0  0  0  0
   16.4770   28.2550    6.0670 C   0  0  0  0  0  0  0  0  0  0  0  0
   17.4210   29.1580    6.5700 C   0  0  0  0  0  0  0  0  0  0  0  0
   16.9210   30.2980    7.2020 C   0  0  0  0  0  0  0  0  0  0  0  0
   17.5350   31.3680    7.7980 N   0  0  0  0  0  0  0  0  0  0  0  0
   16.9410   34.3390   11.2780 O   0  0  0  0  0  0  0  0  0  0  0  0
   16.9660   35.3820   16.1830 C   0  0  0  0  0  0  0  0  0  0  0  0
   16.9330   35.9410   17.4620 C   0  0  0  0  0  0  0  0  0  0  0  0
  1  2  2  0
  2  3  1  0
  3  4  2  0
  4  5  1  0
  5  6  1  0
  6  7  1  0
  7  8  2  0
  8  9  1  0
  9 10  2  0
 10 11  1  0
 11 12  1  0
 12 13  2  0
 13 14  1  0
 14 15  2  0
 15 16  1  0
 16 17  2  0
 17 18  1  0
 18 19  2  0
 19 20  1  0
 10 21  1  0
  4 22  1  0
 22 23  2  0
 23  1  1  0
 21  7  1  0
 20 12  1  0
 19 14  1  0
M  END
$$$$
