SSDRFTJAKXCHTF-ZDUSSCGKSA-N
     RDKit          3D

 30 31  0  0  0  0  0  0  0  0999 V2000
    2.8710    8.4530   -6.7310 C   0  0  0  0  0  0  0  0  0  0  0  0
    3.3350    7.5590   -5.5890 C   0  0  0  0  0  0  0  0  0  0  0  0
    4.7280    7.9390   -5.0630 C   0  0  1  0  0  0  0  0  0  0  0  0
    5.7610    7.9450   -6.2110 C   0  0  0  0  0  0  0  0  0  0  0  0
    6.4950    6.6310   -6.3460 C   0  0  0  0  0  0  0  0  0  0  0  0
    6.0020    5.4500   -5.7900 C   0  0  0  0  0  0  0  0  0  0  0  0
    6.7790    4.2850   -5.8030 C   0  0  0  0  0  0  0  0  0  0  0  0
    8.0750    4.2920   -6.3350 C   0  0  0  0  0  0  0  0  0  0  0  0
    8.9330    3.2240   -6.3270 O   0  0  0  0  0  0  0  0  0  0  0  0
    8.9480    2.4120   -5.1590 C   0  0  0  0  0  0  0  0  0  0  0  0
    8.5750    5.4750   -6.9010 C   0  0  0  0  0  0  0  0  0  0  0  0
   10.0070    5.6160   -7.3520 C   0  0  0  0  0  0  0  0  0  0  0  0
   10.1190    6.6210   -8.3910 N   0  0  0  0  0  0  0  0  0  0  0  0
   10.4960    6.3340   -9.6840 C   0  0  0  0  0  0  0  0  0  0  0  0
   10.7840    5.2140  -10.1000 O   0  0  0  0  0  0  0  0  0  0  0  0
   10.5050    7.4900  -10.6220 C   0  0  0  0  0  0  0  0  0  0  0  0
   10.1680    8.7590  -10.1340 C   0  0  0  0  0  0  0  0  0  0  0  0
   10.1620    9.8650  -10.9900 C   0  0  0  0  0  0  0  0  0  0  0  0
   10.4840    9.7110  -12.3460 C   0  0  0  0  0  0  0  0  0  0  0  0
   10.4930   10.8690  -13.3000 C   0  0  0  0  0  0  0  0  0  0  0  0
   11.6670   10.9890  -13.9830 F   0  0  0  0  0  0  0  0  0  0  0  0
    9.5230   10.7780  -14.2510 F   0  0  0  0  0  0  0  0  0  0  0  0
   10.3080   12.0670  -12.6790 F   0  0  0  0  0  0  0  0  0  0  0  0
   10.8040    8.4380  -12.8160 C   0  0  0  0  0  0  0  0  0  0  0  0
   11.1050    8.2620  -14.1100 F   0  0  0  0  0  0  0  0  0  0  0  0
   10.8150    7.3290  -11.9740 C   0  0  0  0  0  0  0  0  0  0  0  0
    7.7590    6.6140   -6.9420 C   0  0  0  0  0  0  0  0  0  0  0  0
    4.6860    9.2720   -4.3390 C   0  0  0  0  0  0  0  0  0  0  0  0
    5.2100   10.3030   -4.7360 O   0  0  0  0  0  0  0  0  0  0  0  0
    3.9810    9.2390   -3.1920 O   0  0  0  0  0  0  0  0  0  0  0  0
  1  2  1  0
  3  2  1  6
  3  4  1  0
  4  5  1  0
  5  6  2  0
  6  7  1  0
  7  8  2  0
  8  9  1  0
  9 10  1  0
  8 11  1  0
 11 12  1  0
 12 13  1  0
 13 14  1  0
 14 15  2  0
 14 16  1  0
 16 17  2  0
 17 18  1  0
 18 19  2  0
 19 20  1  0
 20 21  1  0
 20 22  1  0
 20 23  1  0
 19 24  1  0
 24 25  1  0
 24 26  2  0
 11 27  2  0
  3 28  1  0
 28 29  2  0
 28 30  1  0
 27  5  1  0
 26 16  1  0
M  END
$$$$
