SSDRFTJAKXCHTF-ZDUSSCGKSA-N
     RDKit          3D

 30 31  0  0  0  0  0  0  0  0999 V2000
    4.0970    6.8180   -3.3700 C   0  0  0  0  0  0  0  0  0  0  0  0
    4.1520    6.9060   -4.8890 C   0  0  0  0  0  0  0  0  0  0  0  0
    5.5870    7.0150   -5.4280 C   0  0  1  0  0  0  0  0  0  0  0  0
    5.8450    5.9470   -6.5130 C   0  0  0  0  0  0  0  0  0  0  0  0
    6.9800    5.0150   -6.1590 C   0  0  0  0  0  0  0  0  0  0  0  0
    7.1930    4.5750   -4.8530 C   0  0  0  0  0  0  0  0  0  0  0  0
    8.3400    3.8360   -4.5340 C   0  0  0  0  0  0  0  0  0  0  0  0
    9.3090    3.5610   -5.5070 C   0  0  0  0  0  0  0  0  0  0  0  0
   10.4920    2.9090   -5.2740 O   0  0  0  0  0  0  0  0  0  0  0  0
   10.8600    2.6980   -3.9160 C   0  0  0  0  0  0  0  0  0  0  0  0
    9.0990    3.9960   -6.8240 C   0  0  0  0  0  0  0  0  0  0  0  0
   10.1550    3.8820   -7.8940 C   0  0  0  0  0  0  0  0  0  0  0  0
   10.1730    5.0710   -8.7240 N   0  0  0  0  0  0  0  0  0  0  0  0
   10.5120    5.0570  -10.0590 C   0  0  0  0  0  0  0  0  0  0  0  0
   10.8420    4.0550  -10.6910 O   0  0  0  0  0  0  0  0  0  0  0  0
   10.4230    6.3680  -10.7580 C   0  0  0  0  0  0  0  0  0  0  0  0
   10.5900    6.4060  -12.1480 C   0  0  0  0  0  0  0  0  0  0  0  0
   10.5170    7.6220  -12.8350 C   0  0  0  0  0  0  0  0  0  0  0  0
   10.2860    8.8150  -12.1360 C   0  0  0  0  0  0  0  0  0  0  0  0
   10.1980   10.1420  -12.8300 C   0  0  0  0  0  0  0  0  0  0  0  0
    8.9380   10.6620  -12.8320 F   0  0  0  0  0  0  0  0  0  0  0  0
   10.9850   11.0930  -12.2550 F   0  0  0  0  0  0  0  0  0  0  0  0
   10.5690   10.0790  -14.1390 F   0  0  0  0  0  0  0  0  0  0  0  0
   10.1360    8.7600  -10.7510 C   0  0  0  0  0  0  0  0  0  0  0  0
    9.9250    9.8870  -10.0580 F   0  0  0  0  0  0  0  0  0  0  0  0
   10.2050    7.5550  -10.0550 C   0  0  0  0  0  0  0  0  0  0  0  0
    7.9150    4.6740   -7.1420 C   0  0  0  0  0  0  0  0  0  0  0  0
    5.8650    8.4160   -5.9410 C   0  0  0  0  0  0  0  0  0  0  0  0
    6.9770    8.8750   -6.1580 O   0  0  0  0  0  0  0  0  0  0  0  0
    4.7510    9.1360   -6.1710 O   0  0  0  0  0  0  0  0  0  0  0  0
  1  2  1  0
  3  2  1  6
  3  4  1  0
  4  5  1  0
  5  6  2  0
  6  7  1  0
  7  8  2  0
  8  9  1  0
  9 10  1  0
  8 11  1  0
 11 12  1  0
 12 13  1  0
 13 14  1  0
 14 15  2  0
 14 16  1  0
 16 17  2  0
 17 18  1  0
 18 19  2  0
 19 20  1  0
 20 21  1  0
 20 22  1  0
 20 23  1  0
 19 24  1  0
 24 25  1  0
 24 26  2  0
 11 27  2  0
  3 28  1  0
 28 29  2  0
 28 30  1  0
 27  5  1  0
 26 16  1  0
M  END
$$$$
