BEMRQBQIGSYKSL-UHFFFAOYSA-N
     RDKit          3D

 26 28  0  0  0  0  0  0  0  0999 V2000
    7.9820  -25.2360   24.1510 C   0  0  0  0  0  0  0  0  0  0  0  0
    6.8830  -24.2580   23.7620 C   0  0  0  0  0  0  0  0  0  0  0  0
    5.7900  -24.9180   22.9470 C   0  0  0  0  0  0  0  0  0  0  0  0
    5.2850  -26.1540   23.3910 C   0  0  0  0  0  0  0  0  0  0  0  0
    4.2810  -26.8160   22.6810 C   0  0  0  0  0  0  0  0  0  0  0  0
    3.7720  -26.2510   21.5170 C   0  0  0  0  0  0  0  0  0  0  0  0
    2.5400  -27.0680   20.6380 Cl  0  0  0  0  0  0  0  0  0  0  0  0
    4.2550  -25.0280   21.0590 C   0  0  0  0  0  0  0  0  0  0  0  0
    5.2580  -24.3490   21.7710 C   0  0  0  0  0  0  0  0  0  0  0  0
    5.7330  -23.0690   21.2360 C   0  0  0  0  0  0  0  0  0  0  0  0
    7.0280  -22.6420   20.9380 C   0  0  0  0  0  0  0  0  0  0  0  0
    8.3180  -23.3250   21.0580 C   0  0  0  0  0  0  0  0  0  0  0  0
    9.3860  -22.6210   21.5240 N   0  0  0  0  0  0  0  0  0  0  0  0
    8.4660  -24.5050   20.7510 O   0  0  0  0  0  0  0  0  0  0  0  0
    6.8990  -21.3070   20.4510 C   0  0  0  0  0  0  0  0  0  0  0  0
    5.5690  -20.9300   20.4510 C   0  0  0  0  0  0  0  0  0  0  0  0
    4.9840  -19.6460   20.0460 C   0  0  0  0  0  0  0  0  0  0  0  0
    4.4070  -19.4760   18.8020 C   0  0  0  0  0  0  0  0  0  0  0  0
    3.9080  -18.2260   18.5050 C   0  0  0  0  0  0  0  0  0  0  0  0
    3.3050  -17.9100   17.3190 N   0  0  0  0  0  0  0  0  0  0  0  0
    2.1680  -17.0450   17.1570 C   0  0  0  0  0  0  0  0  0  0  0  0
    3.9840  -17.2170   19.3840 N   0  0  0  0  0  0  0  0  0  0  0  0
    4.5700  -17.4800   20.5600 C   0  0  0  0  0  0  0  0  0  0  0  0
    5.0780  -18.6550   20.9470 N   0  0  0  0  0  0  0  0  0  0  0  0
    4.8630  -22.0330   20.9070 N   0  0  0  0  0  0  0  0  0  0  0  0
    3.4130  -22.1000   20.9860 C   0  0  0  0  0  0  0  0  0  0  0  0
  1  2  1  0
  2  3  1  0
  3  4  2  0
  4  5  1  0
  5  6  2  0
  6  7  1  0
  6  8  1  0
  8  9  2  0
  9 10  1  0
 10 11  2  0
 11 12  1  0
 12 13  1  0
 12 14  2  0
 11 15  1  0
 15 16  2  0
 16 17  1  0
 17 18  2  0
 18 19  1  0
 19 20  1  0
 20 21  1  0
 19 22  2  0
 22 23  1  0
 23 24  2  0
 16 25  1  0
 25 26  1  0
  9  3  1  0
 25 10  1  0
 24 17  1  0
M  END
$$$$
