RFUNNAWGSBMBCL-UCQKPKSFSA-N
     RDKit          3D

 35 38  0  0  0  0  0  0  0  0999 V2000
   45.6050  -41.0600  109.1260 C   0  0  0  0  0  0  0  0  0  0  0  0
   45.0140  -40.1110  110.0110 O   0  0  0  0  0  0  0  0  0  0  0  0
   44.1770  -39.1960  109.4260 C   0  0  0  0  0  0  0  0  0  0  0  0
   43.2820  -39.5410  108.4030 C   0  0  0  0  0  0  0  0  0  0  0  0
   42.4070  -38.5890  107.8600 C   0  0  0  0  0  0  0  0  0  0  0  0
   41.4860  -38.9300  106.7680 C   0  0  0  0  0  0  0  0  0  0  0  0
   41.8170  -39.2100  105.5010 C   0  0  0  0  0  0  0  0  0  0  0  0
   43.3770  -39.2830  104.7880 S   0  0  0  0  0  0  0  0  0  0  0  0
   42.6460  -39.6830  103.2380 C   0  0  0  0  0  0  0  0  0  0  0  0
   43.5430  -39.8390  102.2230 N   0  0  0  0  0  0  0  0  0  0  0  0
   43.3180  -40.1250  100.8660 C   0  0  0  0  0  0  0  0  0  0  0  0
   44.1960  -41.0110  100.2170 C   0  0  0  0  0  0  0  0  0  0  0  0
   44.0450  -41.3270   98.8620 C   0  0  0  0  0  0  0  0  0  0  0  0
   42.9990  -40.7550   98.1340 C   0  0  0  0  0  0  0  0  0  0  0  0
   42.8610  -41.1710   96.4210 S   0  0  0  0  0  0  0  0  0  0  0  0
   43.1880  -39.7450   95.5980 N   0  0  0  0  0  0  0  0  0  0  0  0
   43.9440  -42.0680   96.0910 O   0  0  0  0  0  0  0  0  0  0  0  0
   41.4770  -41.4770   96.1420 O   0  0  0  0  0  0  0  0  0  0  0  0
   42.1190  -39.8720   98.7500 C   0  0  0  0  0  0  0  0  0  0  0  0
   42.2820  -39.5640  100.1090 C   0  0  0  0  0  0  0  0  0  0  0  0
   41.3590  -39.7700  103.2400 N   0  0  0  0  0  0  0  0  0  0  0  0
   40.7910  -39.5390  104.4680 C   0  0  0  0  0  0  0  0  0  0  0  0
   39.5910  -39.5930  104.7050 O   0  0  0  0  0  0  0  0  0  0  0  0
   42.4450  -37.2760  108.3320 C   0  0  0  0  0  0  0  0  0  0  0  0
   43.3530  -36.9180  109.3280 C   0  0  0  0  0  0  0  0  0  0  0  0
   44.2400  -37.8610  109.8580 C   0  0  0  0  0  0  0  0  0  0  0  0
   45.0700  -37.3600  110.8280 O   0  0  0  0  0  0  0  0  0  0  0  0
   45.7900  -36.1790  110.4770 C   0  0  0  0  0  0  0  0  0  0  0  0
   46.9120  -36.5790  109.5470 C   0  0  0  0  0  0  0  0  0  0  0  0
   47.6640  -35.6050  108.8800 C   0  0  0  0  0  0  0  0  0  0  0  0
   48.6940  -35.9740  108.0100 C   0  0  0  0  0  0  0  0  0  0  0  0
   48.9790  -37.3240  107.7810 C   0  0  0  0  0  0  0  0  0  0  0  0
   50.1070  -37.7160  106.8730 C   0  0  0  0  0  0  0  0  0  0  0  0
   48.2300  -38.2990  108.4480 C   0  0  0  0  0  0  0  0  0  0  0  0
   47.1990  -37.9310  109.3160 C   0  0  0  0  0  0  0  0  0  0  0  0
  1  2  1  0
  2  3  1  0
  3  4  2  0
  4  5  1  0
  5  6  1  0
  6  7  2  0
  7  8  1  0
  8  9  1  0
  9 10  1  0
 10 11  1  0
 11 12  2  0
 12 13  1  0
 13 14  2  0
 14 15  1  0
 15 16  1  0
 15 17  2  0
 15 18  2  0
 14 19  1  0
 19 20  2  0
  9 21  2  0
 21 22  1  0
 22 23  2  0
  5 24  2  0
 24 25  1  0
 25 26  2  0
 26 27  1  0
 27 28  1  0
 28 29  1  0
 29 30  2  0
 30 31  1  0
 31 32  2  0
 32 33  1  0
 32 34  1  0
 34 35  2  0
 26  3  1  0
 35 29  1  0
 22  7  1  0
 20 11  1  0
M  END
$$$$
