PVKAOBUBUDQDRR-UHFFFAOYSA-N
     RDKit          3D

 24 26  0  0  0  0  0  0  0  0999 V2000
   -9.4320  -42.1260   27.7640 C   0  0  0  0  0  0  0  0  0  0  0  0
   -8.3970  -42.6780   28.5080 C   0  0  0  0  0  0  0  0  0  0  0  0
   -8.6780  -43.2660   29.7360 C   0  0  0  0  0  0  0  0  0  0  0  0
   -9.9450  -43.2950   30.2140 N   0  0  0  0  0  0  0  0  0  0  0  0
  -10.2300  -43.9520   31.5130 C   0  0  0  0  0  0  0  0  0  0  0  0
  -10.3310  -45.4680   31.3520 C   0  0  0  0  0  0  0  0  0  0  0  0
  -11.3500  -45.9080   30.2950 C   0  0  0  0  0  0  0  0  0  0  0  0
  -10.6490  -46.4050   29.0240 C   0  0  0  0  0  0  0  0  0  0  0  0
  -11.6060  -46.4850   27.8300 C   0  0  0  0  0  0  0  0  0  0  0  0
  -12.9250  -45.7600   28.1230 C   0  0  0  0  0  0  0  0  0  0  0  0
  -13.5430  -45.1640   26.8550 C   0  0  0  0  0  0  0  0  0  0  0  0
  -13.7670  -43.6600   26.9990 C   0  0  0  0  0  0  0  0  0  0  0  0
  -15.0730  -43.2930   26.3980 N   0  0  0  0  0  0  0  0  0  0  0  0
  -15.2410  -43.3760   25.0590 C   0  0  0  0  0  0  0  0  0  0  0  0
  -16.4520  -43.0300   24.4720 C   0  0  0  0  0  0  0  0  0  0  0  0
  -17.5080  -42.5890   25.2710 C   0  0  0  0  0  0  0  0  0  0  0  0
  -18.7470  -42.2290   24.7170 C   0  0  0  0  0  0  0  0  0  0  0  0
  -19.7870  -41.7880   25.5360 C   0  0  0  0  0  0  0  0  0  0  0  0
  -19.6020  -41.7000   26.9130 C   0  0  0  0  0  0  0  0  0  0  0  0
  -18.3760  -42.0540   27.4770 C   0  0  0  0  0  0  0  0  0  0  0  0
  -17.3210  -42.5000   26.6640 C   0  0  0  0  0  0  0  0  0  0  0  0
  -16.0790  -42.8620   27.1950 C   0  0  0  0  0  0  0  0  0  0  0  0
  -10.9650  -42.7730   29.4910 C   0  0  0  0  0  0  0  0  0  0  0  0
  -10.7270  -42.1750   28.2590 C   0  0  0  0  0  0  0  0  0  0  0  0
  1  2  2  0
  2  3  1  0
  3  4  2  0
  4  5  1  0
  5  6  1  0
  6  7  1  0
  7  8  1  0
  8  9  1  0
  9 10  1  0
 10 11  1  0
 11 12  1  0
 12 13  1  0
 13 14  2  0
 14 15  1  0
 15 16  2  0
 16 17  1  0
 17 18  2  0
 18 19  1  0
 19 20  2  0
 20 21  1  0
 21 22  2  0
  4 23  1  0
 23 24  2  0
 24  1  1  0
 22 13  1  0
 21 16  1  0
M  CHG  2   4   1  13   1
M  END
$$$$
