RJJDBVLQFUOSJC-UHFFFAOYSA-N
     RDKit          3D

 33 37  0  0  0  0  0  0  0  0999 V2000
   10.0720  -28.2550   27.3410 C   0  0  0  0  0  0  0  0  0  0  0  0
    9.9900  -27.8840   25.8680 C   0  0  0  0  0  0  0  0  0  0  0  0
    9.4110  -26.4780   25.6180 C   0  0  0  0  0  0  0  0  0  0  0  0
   10.4580  -25.4900   25.0650 C   0  0  0  0  0  0  0  0  0  0  0  0
   11.8880  -26.0050   25.1900 C   0  0  0  0  0  0  0  0  0  0  0  0
    8.2360  -26.5810   24.7500 N   0  0  0  0  0  0  0  0  0  0  0  0
    7.6100  -25.5520   24.0990 C   0  0  0  0  0  0  0  0  0  0  0  0
    6.5430  -26.1020   23.4130 C   0  0  0  0  0  0  0  0  0  0  0  0
    5.5640  -25.4740   22.5490 C   0  0  0  0  0  0  0  0  0  0  0  0
    5.7980  -24.2410   22.1980 N   0  0  0  0  0  0  0  0  0  0  0  0
    4.8830  -23.5870   21.3860 C   0  0  0  0  0  0  0  0  0  0  0  0
    5.2370  -22.2340   21.0700 C   0  0  0  0  0  0  0  0  0  0  0  0
    6.1110  -21.7360   20.0770 C   0  0  0  0  0  0  0  0  0  0  0  0
    6.1920  -20.4010   20.0850 N   0  0  0  0  0  0  0  0  0  0  0  0
    5.3670  -20.0420   21.0870 N   0  0  0  0  0  0  0  0  0  0  0  0
    5.1830  -18.6400   21.4150 C   0  0  0  0  0  0  0  0  0  0  0  0
    4.0320  -17.9790   20.6280 C   0  0  0  0  0  0  0  0  0  0  0  0
    2.7340  -17.9400   21.4630 C   0  0  0  0  0  0  0  0  0  0  0  0
    1.5540  -17.3450   20.7080 C   0  0  0  0  0  0  0  0  0  0  0  0
    1.8780  -15.6810   20.1780 S   0  0  0  0  0  0  0  0  0  0  0  0
    2.1100  -14.8610   21.3510 O   0  0  0  0  0  0  0  0  0  0  0  0
    0.8730  -15.3160   19.2010 O   0  0  0  0  0  0  0  0  0  0  0  0
    3.4260  -15.8730   19.3230 C   0  0  0  0  0  0  0  0  0  0  0  0
    4.4650  -16.5650   20.1910 C   0  0  0  0  0  0  0  0  0  0  0  0
    4.7680  -21.1010   21.7010 C   0  0  0  0  0  0  0  0  0  0  0  0
    3.7640  -24.1870   20.9440 C   0  0  0  0  0  0  0  0  0  0  0  0
    3.5120  -25.5000   21.2960 N   0  0  0  0  0  0  0  0  0  0  0  0
    2.4580  -26.2700   20.9360 N   0  0  0  0  0  0  0  0  0  0  0  0
    2.7150  -27.4600   21.4770 C   0  0  0  0  0  0  0  0  0  0  0  0
    3.9170  -27.4750   22.2030 C   0  0  0  0  0  0  0  0  0  0  0  0
    4.4020  -26.1900   22.0950 C   0  0  0  0  0  0  0  0  0  0  0  0
    6.6460  -27.4850   23.7070 C   0  0  0  0  0  0  0  0  0  0  0  0
    7.6530  -27.7720   24.5340 N   0  0  0  0  0  0  0  0  0  0  0  0
  1  2  1  0
  2  3  1  0
  3  4  1  0
  4  5  1  0
  3  6  1  0
  6  7  1  0
  7  8  2  0
  8  9  1  0
  9 10  2  0
 10 11  1  0
 11 12  1  0
 12 13  1  0
 13 14  2  0
 14 15  1  0
 15 16  1  0
 16 17  1  0
 17 18  1  0
 18 19  1  0
 19 20  1  0
 20 21  2  0
 20 22  2  0
 20 23  1  0
 23 24  1  0
 15 25  1  0
 11 26  2  0
 26 27  1  0
 27 28  1  0
 28 29  2  0
 29 30  1  0
 30 31  2  0
  8 32  1  0
 32 33  2  0
 33  6  1  0
 31  9  1  0
 25 12  2  0
 31 27  1  0
 24 17  1  0
M  END
$$$$
