KZJDGNASJMWFCF-QGZVFWFLSA-N
     RDKit          3D

 41 45  0  0  0  0  0  0  0  0999 V2000
    1.4410  -17.3580   17.5660 C   0  0  0  0  0  0  0  0  0  0  0  0
    1.9930  -15.9270   17.4820 C   0  0  2  0  0  0  0  0  0  0  0  0
    3.3260  -15.9540   18.2770 C   0  0  0  0  0  0  0  0  0  0  0  0
    4.1140  -15.0130   18.2250 O   0  0  0  0  0  0  0  0  0  0  0  0
    3.5080  -17.1510   18.9430 N   0  0  0  0  0  0  0  0  0  0  0  0
    4.6280  -17.6370   19.6390 C   0  0  0  0  0  0  0  0  0  0  0  0
    5.4240  -16.6830   20.2960 C   0  0  0  0  0  0  0  0  0  0  0  0
    6.5420  -17.0460   21.0440 C   0  0  0  0  0  0  0  0  0  0  0  0
    6.9000  -18.3870   21.1660 C   0  0  0  0  0  0  0  0  0  0  0  0
    6.1300  -19.3810   20.5240 C   0  0  0  0  0  0  0  0  0  0  0  0
    6.2240  -20.8150   20.4500 C   0  0  0  0  0  0  0  0  0  0  0  0
    7.1750  -21.7130   21.0950 C   0  0  0  0  0  0  0  0  0  0  0  0
    6.6270  -22.6290   21.9330 N   0  0  0  0  0  0  0  0  0  0  0  0
    7.4470  -23.4910   22.5530 C   0  0  0  0  0  0  0  0  0  0  0  0
    6.8080  -24.4140   23.3690 N   0  0  0  0  0  0  0  0  0  0  0  0
    6.1950  -25.6540   23.1550 C   0  0  0  0  0  0  0  0  0  0  0  0
    6.7620  -26.8820   23.5150 C   0  0  0  0  0  0  0  0  0  0  0  0
    6.0910  -28.0880   23.2780 C   0  0  0  0  0  0  0  0  0  0  0  0
    4.8360  -28.0880   22.6720 C   0  0  0  0  0  0  0  0  0  0  0  0
    4.2580  -26.8720   22.3080 C   0  0  0  0  0  0  0  0  0  0  0  0
    2.6730  -26.8430   21.5400 S   0  0  0  0  0  0  0  0  0  0  0  0
    2.2990  -28.5230   21.1130 C   0  0  0  0  0  0  0  0  0  0  0  0
    2.8250  -26.1270   20.2860 O   0  0  0  0  0  0  0  0  0  0  0  0
    1.7240  -26.3870   22.5370 O   0  0  0  0  0  0  0  0  0  0  0  0
    4.9290  -25.6780   22.5430 C   0  0  0  0  0  0  0  0  0  0  0  0
    4.3740  -24.5060   22.1920 F   0  0  0  0  0  0  0  0  0  0  0  0
    8.7790  -23.4820   22.3960 N   0  0  0  0  0  0  0  0  0  0  0  0
    9.2920  -22.5590   21.5550 C   0  0  0  0  0  0  0  0  0  0  0  0
    8.5310  -21.6470   20.8720 C   0  0  0  0  0  0  0  0  0  0  0  0
    9.1100  -20.7530   20.0610 F   0  0  0  0  0  0  0  0  0  0  0  0
    5.1820  -21.2360   19.6470 C   0  0  0  0  0  0  0  0  0  0  0  0
    4.4840  -20.1350   19.2380 N   0  0  0  0  0  0  0  0  0  0  0  0
    5.0210  -18.9810   19.7660 C   0  0  0  0  0  0  0  0  0  0  0  0
    1.0780  -14.9090   18.0620 N   0  0  0  0  0  0  0  0  0  0  0  0
    0.8530  -14.9940   19.5080 C   0  0  0  0  0  0  0  0  0  0  0  0
    0.1140  -16.2000   20.0880 C   0  0  0  0  0  0  0  0  0  0  0  0
   -1.4160  -16.1630   20.1190 C   0  0  0  0  0  0  0  0  0  0  0  0
   -2.0370  -15.3950   19.0330 N   0  0  0  0  0  0  0  0  0  0  0  0
   -3.4640  -15.7310   18.9510 C   0  0  0  0  0  0  0  0  0  0  0  0
   -1.3900  -15.7110   17.7410 C   0  0  0  0  0  0  0  0  0  0  0  0
   -0.2140  -14.7870   17.3500 C   0  0  0  0  0  0  0  0  0  0  0  0
  2  1  1  1
  2  3  1  0
  3  4  2  0
  3  5  1  0
  5  6  1  0
  6  7  2  0
  7  8  1  0
  8  9  2  0
  9 10  1  0
 10 11  1  0
 11 12  1  0
 12 13  2  0
 13 14  1  0
 14 15  1  0
 15 16  1  0
 16 17  2  0
 17 18  1  0
 18 19  2  0
 19 20  1  0
 20 21  1  0
 21 22  1  0
 21 23  2  0
 21 24  2  0
 20 25  2  0
 25 26  1  0
 14 27  2  0
 27 28  1  0
 28 29  2  0
 29 30  1  0
 11 31  2  0
 31 32  1  0
 32 33  1  0
  2 34  1  0
 34 35  1  0
 35 36  1  0
 36 37  1  0
 37 38  1  0
 38 39  1  0
 38 40  1  0
 40 41  1  0
 33  6  1  0
 41 34  1  0
 33 10  2  0
 29 12  1  0
 25 16  1  0
M  END
$$$$
