MMHAEDBURINXPB-UONOGXRCSA-N
     RDKit          3D

 36 39  0  0  0  0  0  0  0  0999 V2000
   43.9650   -6.1030  -51.7740 C   0  0  0  0  0  0  0  0  0  0  0  0
   44.5770   -6.3180  -50.5100 O   0  0  0  0  0  0  0  0  0  0  0  0
   45.4020   -5.2820  -50.1290 C   0  0  0  0  0  0  0  0  0  0  0  0
   44.7690   -4.2290  -49.6010 N   0  0  0  0  0  0  0  0  0  0  0  0
   45.5550   -3.1990  -49.2030 C   0  0  0  0  0  0  0  0  0  0  0  0
   46.9330   -3.1700  -49.3090 C   0  0  0  0  0  0  0  0  0  0  0  0
   47.7630   -2.1170  -48.9240 N   0  0  0  0  0  0  0  0  0  0  0  0
   48.4390   -1.8510  -47.7160 C   0  0  0  0  0  0  0  0  0  0  0  0
   47.8590   -2.2640  -46.5590 N   0  0  0  0  0  0  0  0  0  0  0  0
   48.4750   -2.0040  -45.3870 C   0  0  0  0  0  0  0  0  0  0  0  0
   49.6710   -1.3180  -45.2770 C   0  0  0  0  0  0  0  0  0  0  0  0
   50.3200   -1.0820  -43.9220 C   0  0  1  0  0  0  0  0  0  0  0  0
   49.6940    0.2010  -43.3380 C   0  0  0  0  0  0  0  0  0  0  0  0
   50.1900   -2.2650  -43.0360 N   0  0  0  0  0  0  0  0  0  0  0  0
   49.9120   -1.9270  -41.6250 C   0  0  0  0  0  0  0  0  0  0  0  0
   49.7180   -3.1630  -40.7220 C   0  0  0  0  0  0  0  0  0  0  0  0
   50.9000   -4.0710  -40.8120 N   0  0  0  0  0  0  0  0  0  0  0  0
   50.8890   -5.3920  -39.7390 S   0  0  0  0  0  0  0  0  0  0  0  0
   50.1790   -6.6780  -40.7450 C   0  0  0  0  0  0  0  0  0  0  0  0
   49.9430   -5.0950  -38.6840 O   0  0  0  0  0  0  0  0  0  0  0  0
   52.2630   -5.7350  -39.4400 O   0  0  0  0  0  0  0  0  0  0  0  0
   51.1000   -4.4750  -42.2410 C   0  0  0  0  0  0  0  0  0  0  0  0
   51.3350   -3.2230  -43.1320 C   0  0  2  0  0  0  0  0  0  0  0  0
   52.7160   -2.6200  -42.8190 C   0  0  0  0  0  0  0  0  0  0  0  0
   50.2540   -0.8850  -46.4730 C   0  0  0  0  0  0  0  0  0  0  0  0
   49.6590   -1.1410  -47.7270 C   0  0  0  0  0  0  0  0  0  0  0  0
   50.3240   -0.6770  -48.9610 C   0  0  0  0  0  0  0  0  0  0  0  0
   51.5260   -0.0960  -48.8510 N   0  0  0  0  0  0  0  0  0  0  0  0
   52.0500    0.3330  -50.0010 C   0  0  0  0  0  0  0  0  0  0  0  0
   53.3980    0.9830  -49.9440 C   0  0  0  0  0  0  0  0  0  0  0  0
   51.4740    0.2030  -51.1940 N   0  0  0  0  0  0  0  0  0  0  0  0
   50.2900   -0.3910  -51.1910 C   0  0  0  0  0  0  0  0  0  0  0  0
   49.6640   -0.5560  -52.3920 N   0  0  0  0  0  0  0  0  0  0  0  0
   49.6710   -0.8410  -50.1130 N   0  0  0  0  0  0  0  0  0  0  0  0
   47.4530   -4.3210  -49.8810 C   0  0  0  0  0  0  0  0  0  0  0  0
   46.7290   -5.3840  -50.2990 N   0  0  0  0  0  0  0  0  0  0  0  0
  1  2  1  0
  2  3  1  0
  3  4  2  0
  4  5  1  0
  5  6  2  0
  6  7  1  0
  7  8  1  0
  8  9  2  0
  9 10  1  0
 10 11  2  0
 11 12  1  0
 12 13  1  1
 12 14  1  0
 14 15  1  0
 15 16  1  0
 16 17  1  0
 17 18  1  0
 18 19  1  0
 18 20  2  0
 18 21  2  0
 17 22  1  0
 22 23  1  0
 23 24  1  1
 11 25  1  0
 25 26  2  0
 26 27  1  0
 27 28  2  0
 28 29  1  0
 29 30  1  0
 29 31  2  0
 31 32  1  0
 32 33  1  0
 32 34  2  0
  6 35  1  0
 35 36  2  0
 36  3  1  0
 26  8  1  0
 34 27  1  0
 23 14  1  0
M  END
$$$$
