WLDWWFXJFODOTC-UHFFFAOYSA-N
     RDKit          3D

 27 30  0  0  0  0  0  0  0  0999 V2000
  136.4960  -15.0580  166.5550 N   0  0  0  0  0  0  0  0  0  0  0  0
  135.8520  -16.1650  166.3680 C   0  0  0  0  0  0  0  0  0  0  0  0
  136.5830  -17.2920  166.1930 N   0  0  0  0  0  0  0  0  0  0  0  0
  134.3670  -16.2220  166.3360 C   0  0  0  0  0  0  0  0  0  0  0  0
  133.6460  -16.2530  167.5380 C   0  0  0  0  0  0  0  0  0  0  0  0
  132.2460  -16.2980  167.5430 C   0  0  0  0  0  0  0  0  0  0  0  0
  131.6200  -16.3060  166.2950 C   0  0  0  0  0  0  0  0  0  0  0  0
  130.3050  -16.3430  165.9210 N   0  0  0  0  0  0  0  0  0  0  0  0
  130.2250  -16.3320  164.5470 C   0  0  0  0  0  0  0  0  0  0  0  0
  128.9600  -16.3670  163.7990 C   0  0  0  0  0  0  0  0  0  0  0  0
  128.4320  -15.1530  163.3360 C   0  0  0  0  0  0  0  0  0  0  0  0
  127.2360  -15.1230  162.6230 C   0  0  0  0  0  0  0  0  0  0  0  0
  126.6080  -13.6210  162.0660 Cl  0  0  0  0  0  0  0  0  0  0  0  0
  126.5430  -16.3000  162.3560 C   0  0  0  0  0  0  0  0  0  0  0  0
  127.0370  -17.5370  162.7990 C   0  0  0  0  0  0  0  0  0  0  0  0
  126.2840  -18.7580  162.4890 C   0  0  0  0  0  0  0  0  0  0  0  0
  125.0150  -18.9760  163.0440 C   0  0  0  0  0  0  0  0  0  0  0  0
  124.3230  -20.1560  162.7740 C   0  0  0  0  0  0  0  0  0  0  0  0
  124.8870  -21.1230  161.9410 C   0  0  0  0  0  0  0  0  0  0  0  0
  126.1350  -20.9160  161.3500 C   0  0  0  0  0  0  0  0  0  0  0  0
  126.7140  -21.8990  160.5690 N   0  0  0  0  0  0  0  0  0  0  0  0
  126.8310  -19.7420  161.6470 C   0  0  0  0  0  0  0  0  0  0  0  0
  128.2490  -17.5550  163.5270 C   0  0  0  0  0  0  0  0  0  0  0  0
  128.7590  -18.7490  163.9950 O   0  0  0  0  0  0  0  0  0  0  0  0
  131.4410  -16.2880  164.0280 N   0  0  0  0  0  0  0  0  0  0  0  0
  132.3100  -16.2710  165.0900 C   0  0  0  0  0  0  0  0  0  0  0  0
  133.7110  -16.2280  165.0960 C   0  0  0  0  0  0  0  0  0  0  0  0
  1  2  2  0
  2  3  1  0
  2  4  1  0
  4  5  2  0
  5  6  1  0
  6  7  2  0
  7  8  1  0
  8  9  1  0
  9 10  1  0
 10 11  2  0
 11 12  1  0
 12 13  1  0
 12 14  2  0
 14 15  1  0
 15 16  1  0
 16 17  2  0
 17 18  1  0
 18 19  2  0
 19 20  1  0
 20 21  1  0
 20 22  2  0
 15 23  2  0
 23 24  1  0
  9 25  2  0
 25 26  1  0
 26 27  2  0
 27  4  1  0
 26  7  1  0
 23 10  1  0
 22 16  1  0
M  END
$$$$
