DWNHMQOMYAIZCG-HHHXNRCGSA-N
     RDKit          3D

 44 48  0  0  0  0  0  0  0  0999 V2000
   -0.6420    5.4920   27.1020 N   0  0  0  0  0  0  0  0  0  0  0  0
   -0.8170    6.4630   27.9420 C   0  0  0  0  0  0  0  0  0  0  0  0
   -0.5680    6.2520   29.2670 N   0  0  0  0  0  0  0  0  0  0  0  0
   -1.3030    7.7890   27.4450 C   0  0  0  0  0  0  0  0  0  0  0  0
   -2.4970    8.3490   27.9110 C   0  0  0  0  0  0  0  0  0  0  0  0
   -2.9260    9.5900   27.4280 C   0  0  0  0  0  0  0  0  0  0  0  0
   -2.1680   10.2840   26.4800 C   0  0  0  0  0  0  0  0  0  0  0  0
   -2.6380   11.6130   25.9540 C   0  0  0  0  0  0  0  0  0  0  0  0
   -3.4570   11.4340   24.7840 N   0  0  0  0  0  0  0  0  0  0  0  0
   -3.1480   11.9540   23.5580 C   0  0  0  0  0  0  0  0  0  0  0  0
   -2.1090   12.5640   23.3160 O   0  0  0  0  0  0  0  0  0  0  0  0
   -4.1920   11.6910   22.4670 C   0  0  0  0  0  0  0  0  0  0  0  0
   -3.9510   12.4810   21.2460 N   0  0  0  0  0  0  0  0  0  0  0  0
   -3.5420   11.7830   20.1180 C   0  0  0  0  0  0  0  0  0  0  0  0
   -2.9820   10.6840   20.1970 O   0  0  0  0  0  0  0  0  0  0  0  0
   -3.8500   12.3730   18.7460 C   0  0  2  0  0  0  0  0  0  0  0  0
   -4.0370   11.2510   17.7720 N   0  0  0  0  0  0  0  0  0  0  0  0
   -5.6200   10.9400   17.2610 S   0  0  0  0  0  0  0  0  0  0  0  0
   -5.5330   10.0300   16.1360 O   0  0  0  0  0  0  0  0  0  0  0  0
   -6.2270   12.2490   17.1330 O   0  0  0  0  0  0  0  0  0  0  0  0
   -6.3070   10.1000   18.6990 C   0  0  0  0  0  0  0  0  0  0  0  0
   -6.1560    8.6160   18.5250 C   0  0  0  0  0  0  0  0  0  0  0  0
   -7.2610    7.8280   18.1810 C   0  0  0  0  0  0  0  0  0  0  0  0
   -7.1210    6.4480   18.0210 C   0  0  0  0  0  0  0  0  0  0  0  0
   -5.8790    5.8440   18.1940 C   0  0  0  0  0  0  0  0  0  0  0  0
   -4.7710    6.6160   18.5290 C   0  0  0  0  0  0  0  0  0  0  0  0
   -4.9080    7.9940   18.6950 C   0  0  0  0  0  0  0  0  0  0  0  0
   -2.6210   13.1940   18.3030 C   0  0  0  0  0  0  0  0  0  0  0  0
   -2.0990   14.5520   19.4060 S   0  0  0  0  0  0  0  0  0  0  0  0
   -3.5080   14.8330   20.4840 C   0  0  0  0  0  0  0  0  0  0  0  0
   -3.8140   16.1980   20.6330 C   0  0  0  0  0  0  0  0  0  0  0  0
   -4.7600   16.6400   21.5660 C   0  0  0  0  0  0  0  0  0  0  0  0
   -5.4380   15.7380   22.3700 C   0  0  0  0  0  0  0  0  0  0  0  0
   -6.3840   16.1870   23.4010 C   0  0  0  0  0  0  0  0  0  0  0  0
   -5.9160   16.6100   24.6570 C   0  0  0  0  0  0  0  0  0  0  0  0
   -6.8010   17.0230   25.6540 C   0  0  0  0  0  0  0  0  0  0  0  0
   -8.1720   17.0260   25.3990 C   0  0  0  0  0  0  0  0  0  0  0  0
   -8.6650   16.5990   24.1640 C   0  0  0  0  0  0  0  0  0  0  0  0
  -10.0260   16.6680   23.8850 N   0  0  0  0  0  0  0  0  0  0  0  0
   -7.7670   16.2000   23.1640 C   0  0  0  0  0  0  0  0  0  0  0  0
   -5.1440   14.3740   22.2110 C   0  0  0  0  0  0  0  0  0  0  0  0
   -4.1890   13.8910   21.2860 C   0  0  0  0  0  0  0  0  0  0  0  0
   -0.9800    9.7160   26.0060 C   0  0  0  0  0  0  0  0  0  0  0  0
   -0.5480    8.4800   26.4920 C   0  0  0  0  0  0  0  0  0  0  0  0
  1  2  2  0
  2  3  1  0
  2  4  1  0
  4  5  2  0
  5  6  1  0
  6  7  2  0
  7  8  1  0
  8  9  1  0
  9 10  1  0
 10 11  2  0
 10 12  1  0
 12 13  1  0
 13 14  1  0
 14 15  2  0
 14 16  1  0
 16 17  1  6
 17 18  1  0
 18 19  2  0
 18 20  2  0
 18 21  1  0
 21 22  1  0
 22 23  2  0
 23 24  1  0
 24 25  2  0
 25 26  1  0
 26 27  2  0
 16 28  1  0
 28 29  1  0
 29 30  1  0
 30 31  2  0
 31 32  1  0
 32 33  2  0
 33 34  1  0
 34 35  2  0
 35 36  1  0
 36 37  2  0
 37 38  1  0
 38 39  1  0
 38 40  2  0
 33 41  1  0
 41 42  2  0
  7 43  1  0
 43 44  2  0
 44  4  1  0
 42 13  1  0
 27 22  1  0
 42 30  1  0
 40 34  1  0
M  END
$$$$
