LCJXIGPIXIZELV-UHFFFAOYSA-N
     RDKit          3D

 35 39  0  0  0  0  0  0  0  0999 V2000
  -10.7110  -46.5350   28.6870 C   0  0  0  0  0  0  0  0  0  0  0  0
  -11.4210  -46.1710   29.9230 N   0  0  0  0  0  0  0  0  0  0  0  0
  -12.3810  -45.0720   29.6570 C   0  0  0  0  0  0  0  0  0  0  0  0
  -13.4210  -45.3820   28.5700 C   0  0  0  0  0  0  0  0  0  0  0  0
  -14.5210  -44.3320   28.5430 C   0  0  0  0  0  0  0  0  0  0  0  0
  -15.1170  -43.9980   29.5680 O   0  0  0  0  0  0  0  0  0  0  0  0
  -14.8020  -43.7560   27.3130 N   0  0  0  0  0  0  0  0  0  0  0  0
  -15.8890  -42.7800   27.2180 C   0  0  0  0  0  0  0  0  0  0  0  0
  -16.5320  -42.7880   25.8220 C   0  0  0  0  0  0  0  0  0  0  0  0
  -15.5860  -42.4500   24.7370 N   0  0  0  0  0  0  0  0  0  0  0  0
  -16.1100  -42.9020   23.4360 C   0  0  0  0  0  0  0  0  0  0  0  0
  -17.0020  -41.8570   22.7300 C   0  0  0  0  0  0  0  0  0  0  0  0
  -18.3360  -42.4190   22.5010 N   0  0  0  0  0  0  0  0  0  0  0  0
  -19.4210  -41.6150   22.8970 C   0  0  0  0  0  0  0  0  0  0  0  0
  -19.9350  -40.6550   22.0040 C   0  0  0  0  0  0  0  0  0  0  0  0
  -20.9690  -39.8320   22.4550 C   0  0  0  0  0  0  0  0  0  0  0  0
  -21.5090  -39.9320   23.6920 N   0  0  0  0  0  0  0  0  0  0  0  0
  -21.0230  -40.8490   24.5400 C   0  0  0  0  0  0  0  0  0  0  0  0
  -21.5880  -40.9280   25.8070 C   0  0  0  0  0  0  0  0  0  0  0  0
  -21.1410  -41.8460   26.7610 C   0  0  0  0  0  0  0  0  0  0  0  0
  -20.1020  -42.7070   26.4470 C   0  0  0  0  0  0  0  0  0  0  0  0
  -19.5200  -42.6470   25.1800 C   0  0  0  0  0  0  0  0  0  0  0  0
  -19.9710  -41.7230   24.2040 C   0  0  0  0  0  0  0  0  0  0  0  0
  -21.6140  -38.8060   21.5580 C   0  0  0  0  0  0  0  0  0  0  0  0
  -20.7660  -38.4400   20.3450 C   0  0  0  0  0  0  0  0  0  0  0  0
  -20.2650  -39.7060   19.6640 C   0  0  0  0  0  0  0  0  0  0  0  0
  -19.3670  -40.4990   20.6130 C   0  0  0  0  0  0  0  0  0  0  0  0
  -14.2190  -42.9350   25.0200 C   0  0  0  0  0  0  0  0  0  0  0  0
  -14.1110  -44.0700   26.0600 C   0  0  0  0  0  0  0  0  0  0  0  0
  -10.4420  -45.8440   31.0080 C   0  0  0  0  0  0  0  0  0  0  0  0
   -8.9600  -46.0990   30.6360 C   0  0  0  0  0  0  0  0  0  0  0  0
   -7.9910  -45.6770   31.7390 C   0  0  0  0  0  0  0  0  0  0  0  0
   -8.1770  -44.2170   32.1240 C   0  0  0  0  0  0  0  0  0  0  0  0
   -9.6200  -43.9400   32.5140 C   0  0  0  0  0  0  0  0  0  0  0  0
  -10.5950  -44.3550   31.4130 C   0  0  0  0  0  0  0  0  0  0  0  0
  1  2  1  0
  2  3  1  0
  3  4  1  0
  4  5  1  0
  5  6  2  0
  5  7  1  0
  7  8  1  0
  8  9  1  0
  9 10  1  0
 10 11  1  0
 11 12  1  0
 12 13  1  0
 13 14  1  0
 14 15  2  0
 15 16  1  0
 16 17  2  0
 17 18  1  0
 18 19  2  0
 19 20  1  0
 20 21  2  0
 21 22  1  0
 22 23  2  0
 16 24  1  0
 24 25  1  0
 25 26  1  0
 26 27  1  0
 10 28  1  0
 28 29  1  0
  2 30  1  0
 30 31  1  0
 31 32  1  0
 32 33  1  0
 33 34  1  0
 34 35  1  0
 29  7  1  0
 35 30  1  0
 23 14  1  0
 27 15  1  0
 23 18  1  0
M  END
$$$$
