IKAXKGNBVUEIGG-AULYBMBSSA-N
     RDKit          3D

 23 25  0  0  0  0  0  0  0  0999 V2000
   -6.2850   27.5770  -32.7900 N   0  0  0  0  0  0  0  0  0  0  0  0
   -5.3930   27.7550  -31.7690 C   0  0  0  0  0  0  0  0  0  0  0  0
   -5.1760   28.8700  -31.3150 O   0  0  0  0  0  0  0  0  0  0  0  0
   -4.7310   26.5440  -31.2200 C   0  0  0  0  0  0  0  0  0  0  0  0
   -4.8030   25.3040  -31.8700 C   0  0  0  0  0  0  0  0  0  0  0  0
   -4.1710   24.1700  -31.3420 C   0  0  0  0  0  0  0  0  0  0  0  0
   -3.4630   24.3310  -30.1430 C   0  0  0  0  0  0  0  0  0  0  0  0
   -3.3740   25.5520  -29.4880 C   0  0  0  0  0  0  0  0  0  0  0  0
   -4.0030   26.6820  -30.0280 C   0  0  0  0  0  0  0  0  0  0  0  0
   -2.6380   25.4380  -28.3410 N   0  0  0  0  0  0  0  0  0  0  0  0
   -2.2700   24.1740  -28.2600 C   0  0  0  0  0  0  0  0  0  0  0  0
   -1.4820   23.5690  -27.1210 C   0  0  2  0  0  0  0  0  0  0  0  0
   -2.3390   23.4700  -25.8510 C   0  0  0  0  0  0  0  0  0  0  0  0
   -2.5190   24.8120  -25.1380 C   0  0  0  0  0  0  0  0  0  0  0  0
   -1.1830   25.4900  -24.8480 C   0  0  1  0  0  0  0  0  0  0  0  0
   -0.4700   24.6990  -23.8950 O   0  0  0  0  0  0  0  0  0  0  0  0
   -0.3380   25.6470  -26.1090 C   0  0  0  0  0  0  0  0  0  0  0  0
   -0.1650   24.3240  -26.8630 C   0  0  0  0  0  0  0  0  0  0  0  0
   -2.7290   23.4690  -29.3570 N   0  0  0  0  0  0  0  0  0  0  0  0
   -2.5190   22.0570  -29.6290 C   0  0  0  0  0  0  0  0  0  0  0  0
   -3.8100   21.2360  -29.6520 C   0  0  0  0  0  0  0  0  0  0  0  0
   -4.7750   21.5710  -28.5230 C   0  0  0  0  0  0  0  0  0  0  0  0
   -4.2620   21.0800  -27.2930 O   0  0  0  0  0  0  0  0  0  0  0  0
  1  2  1  0
  2  3  2  0
  2  4  1  0
  4  5  2  0
  5  6  1  0
  6  7  2  0
  7  8  1  0
  8  9  2  0
  8 10  1  0
 10 11  2  0
 12 11  1  1
 12 13  1  0
 13 14  1  0
 14 15  1  0
 15 16  1  6
 15 17  1  0
 17 18  1  0
 11 19  1  0
 19 20  1  0
 20 21  1  0
 21 22  1  0
 22 23  1  0
  9  4  1  0
 18 12  1  0
 19  7  1  0
M  END
$$$$
