FLCBADIIGVYFAJ-OEAKJJBVSA-N
     RDKit          3D

 35 38  0  0  0  0  0  0  0  0999 V2000
  127.4320  -13.8400  159.6330 C   0  0  0  0  0  0  0  0  0  0  0  0
  128.0410  -14.1840  160.9640 C   0  0  0  0  0  0  0  0  0  0  0  0
  129.3680  -14.3440  161.1230 C   0  0  0  0  0  0  0  0  0  0  0  0
  130.1780  -14.1780  160.0480 F   0  0  0  0  0  0  0  0  0  0  0  0
  130.1140  -14.6750  162.3840 C   0  0  0  0  0  0  0  0  0  0  0  0
  130.5190  -13.8210  163.1610 O   0  0  0  0  0  0  0  0  0  0  0  0
  130.2660  -16.0410  162.5300 N   0  0  0  0  0  0  0  0  0  0  0  0
  130.9300  -16.7350  163.5620 C   0  0  0  0  0  0  0  0  0  0  0  0
  130.2970  -17.3050  164.6640 C   0  0  0  0  0  0  0  0  0  0  0  0
  131.0490  -17.9590  165.6490 C   0  0  0  0  0  0  0  0  0  0  0  0
  132.4480  -18.0480  165.5590 C   0  0  0  0  0  0  0  0  0  0  0  0
  133.2240  -18.7320  166.6010 C   0  0  0  0  0  0  0  0  0  0  0  0
  133.1920  -20.1410  166.6290 C   0  0  0  0  0  0  0  0  0  0  0  0
  133.8960  -20.8670  167.5930 C   0  0  0  0  0  0  0  0  0  0  0  0
  134.6480  -20.2020  168.5530 C   0  0  0  0  0  0  0  0  0  0  0  0
  134.7020  -18.8080  168.5480 C   0  0  0  0  0  0  0  0  0  0  0  0
  133.9940  -18.0740  167.5810 C   0  0  0  0  0  0  0  0  0  0  0  0
  134.1390  -16.3060  167.6260 S   0  0  0  0  0  0  0  0  0  0  0  0
  134.8220  -16.0100  169.1290 N   0  0  0  0  0  0  0  0  0  0  0  0
  135.1490  -15.8930  166.6770 O   0  0  0  0  0  0  0  0  0  0  0  0
  132.8230  -15.7130  167.6290 O   0  0  0  0  0  0  0  0  0  0  0  0
  133.0780  -17.4900  164.4410 C   0  0  0  0  0  0  0  0  0  0  0  0
  132.3230  -16.8440  163.4660 C   0  0  0  0  0  0  0  0  0  0  0  0
  132.9530  -16.3070  162.4080 F   0  0  0  0  0  0  0  0  0  0  0  0
  127.0680  -14.3060  162.0610 C   0  0  0  0  0  0  0  0  0  0  0  0
  126.3520  -15.4910  162.2400 C   0  0  0  0  0  0  0  0  0  0  0  0
  125.4320  -15.6010  163.2840 C   0  0  0  0  0  0  0  0  0  0  0  0
  125.2070  -14.5290  164.1620 C   0  0  0  0  0  0  0  0  0  0  0  0
  124.2980  -14.6450  165.2170 C   0  0  0  0  0  0  0  0  0  0  0  0
  124.1240  -13.5650  166.0610 C   0  0  0  0  0  0  0  0  0  0  0  0
  124.7690  -12.3900  165.9230 N   0  0  0  0  0  0  0  0  0  0  0  0
  125.6350  -12.2720  164.8970 C   0  0  0  0  0  0  0  0  0  0  0  0
  126.2690  -11.0430  164.8280 N   0  0  0  0  0  0  0  0  0  0  0  0
  125.9120  -13.3180  163.9880 C   0  0  0  0  0  0  0  0  0  0  0  0
  126.8490  -13.2310  162.9300 C   0  0  0  0  0  0  0  0  0  0  0  0
  1  2  1  0
  2  3  2  0
  3  4  1  0
  3  5  1  0
  5  6  2  0
  5  7  1  0
  7  8  1  0
  8  9  2  0
  9 10  1  0
 10 11  2  0
 11 12  1  0
 12 13  2  0
 13 14  1  0
 14 15  2  0
 15 16  1  0
 16 17  2  0
 17 18  1  0
 18 19  1  0
 18 20  2  0
 18 21  2  0
 11 22  1  0
 22 23  2  0
 23 24  1  0
  2 25  1  0
 25 26  2  0
 26 27  1  0
 27 28  2  0
 28 29  1  0
 29 30  2  0
 30 31  1  0
 31 32  2  0
 32 33  1  0
 32 34  1  0
 34 35  2  0
 23  8  1  0
 35 25  1  0
 17 12  1  0
 34 28  1  0
M  END
$$$$
