SZBGAKRKURPQNJ-UHFFFAOYSA-N
     RDKit          3D

 37 39  0  0  0  0  0  0  0  0999 V2000
    0.3200   11.5440   22.6710 O   0  0  0  0  0  0  0  0  0  0  0  0
   -0.6550   10.7960   22.6510 C   0  0  0  0  0  0  0  0  0  0  0  0
   -1.6680   10.8280   21.4950 C   0  0  0  0  0  0  0  0  0  0  0  0
   -3.0160   11.1240   21.9480 N   0  0  0  0  0  0  0  0  0  0  0  0
   -3.4580   12.3950   22.2200 C   0  0  0  0  0  0  0  0  0  0  0  0
   -2.7280   13.3840   22.2510 O   0  0  0  0  0  0  0  0  0  0  0  0
   -4.9610   12.4820   22.5110 C   0  0  2  0  0  0  0  0  0  0  0  0
   -5.1960   12.6010   24.0260 C   0  0  0  0  0  0  0  0  0  0  0  0
   -6.3860   13.5030   24.3850 C   0  0  0  0  0  0  0  0  0  0  0  0
   -7.4390   13.8510   23.3550 C   0  0  0  0  0  0  0  0  0  0  0  0
   -7.3700   15.1100   22.7240 C   0  0  0  0  0  0  0  0  0  0  0  0
   -8.2860   15.4690   21.7380 C   0  0  0  0  0  0  0  0  0  0  0  0
   -9.2690   14.5720   21.3510 C   0  0  0  0  0  0  0  0  0  0  0  0
   -9.3180   13.3220   21.9580 C   0  0  0  0  0  0  0  0  0  0  0  0
   -8.4240   12.9480   22.9550 N   0  0  0  0  0  0  0  0  0  0  0  0
   -8.5580   11.7900   23.4850 O   0  0  0  0  0  0  0  0  0  0  0  0
   -5.6400   11.2540   22.0370 N   0  0  0  0  0  0  0  0  0  0  0  0
   -6.1100   11.1550   20.4260 S   0  0  0  0  0  0  0  0  0  0  0  0
   -5.0330   10.4840   19.7250 O   0  0  0  0  0  0  0  0  0  0  0  0
   -6.5170   12.5010   20.0810 O   0  0  0  0  0  0  0  0  0  0  0  0
   -7.5640   10.0900   20.4760 C   0  0  0  0  0  0  0  0  0  0  0  0
   -7.3620    8.9400   19.5210 C   0  0  0  0  0  0  0  0  0  0  0  0
   -6.9080    7.6990   19.9890 C   0  0  0  0  0  0  0  0  0  0  0  0
   -6.7310    6.6320   19.1070 C   0  0  0  0  0  0  0  0  0  0  0  0
   -7.0030    6.7930   17.7510 C   0  0  0  0  0  0  0  0  0  0  0  0
   -7.4560    8.0200   17.2740 C   0  0  0  0  0  0  0  0  0  0  0  0
   -7.6370    9.0890   18.1520 C   0  0  0  0  0  0  0  0  0  0  0  0
   -0.9950    9.9760   23.7100 N   0  0  0  0  0  0  0  0  0  0  0  0
   -0.1700    9.8330   24.8900 C   0  0  0  0  0  0  0  0  0  0  0  0
   -0.8340    9.0980   26.0360 C   0  0  0  0  0  0  0  0  0  0  0  0
   -0.3610    7.8540   26.4940 C   0  0  0  0  0  0  0  0  0  0  0  0
   -0.9760    7.2040   27.5630 C   0  0  0  0  0  0  0  0  0  0  0  0
   -0.3480    5.6980   28.1100 Cl  0  0  0  0  0  0  0  0  0  0  0  0
   -2.0820    7.7670   28.1890 C   0  0  0  0  0  0  0  0  0  0  0  0
   -2.5760    8.9930   27.7470 C   0  0  0  0  0  0  0  0  0  0  0  0
   -1.9640    9.6500   26.6750 C   0  0  0  0  0  0  0  0  0  0  0  0
   -2.6400   11.1620   26.1660 Cl  0  0  0  0  0  0  0  0  0  0  0  0
  1  2  2  0
  2  3  1  0
  3  4  1  0
  4  5  1  0
  5  6  2  0
  5  7  1  0
  7  8  1  1
  8  9  1  0
  9 10  1  0
 10 11  2  0
 11 12  1  0
 12 13  2  0
 13 14  1  0
 14 15  2  0
 15 16  1  0
  7 17  1  0
 17 18  1  0
 18 19  2  0
 18 20  2  0
 18 21  1  0
 21 22  1  0
 22 23  2  0
 23 24  1  0
 24 25  2  0
 25 26  1  0
 26 27  2  0
  2 28  1  0
 28 29  1  0
 29 30  1  0
 30 31  2  0
 31 32  1  0
 32 33  1  0
 32 34  2  0
 34 35  1  0
 35 36  2  0
 36 37  1  0
 15 10  1  0
 27 22  1  0
 36 30  1  0
M  CHG  2  15   1  16  -1
M  END
$$$$
