OOZNMURDAKWFQS-RUZDIDTESA-N
     RDKit          3D

 31 34  0  0  0  0  0  0  0  0999 V2000
   45.7390  -43.3880  108.0570 C   0  0  0  0  0  0  0  0  0  0  0  0
   45.6770  -41.8570  107.9850 C   0  0  2  0  0  0  0  0  0  0  0  0
   46.4290  -41.4360  106.7080 C   0  0  0  0  0  0  0  0  0  0  0  0
   46.2120  -41.7990  105.5620 O   0  0  0  0  0  0  0  0  0  0  0  0
   47.4580  -40.5910  106.9450 O   0  0  0  0  0  0  0  0  0  0  0  0
   46.2990  -41.2590  109.2550 C   0  0  0  0  0  0  0  0  0  0  0  0
   46.1740  -39.7420  109.2380 C   0  0  0  0  0  0  0  0  0  0  0  0
   44.7920  -39.3370  108.8240 C   0  0  0  0  0  0  0  0  0  0  0  0
   44.3450  -38.0300  109.0550 C   0  0  0  0  0  0  0  0  0  0  0  0
   43.0570  -37.6380  108.6740 C   0  0  0  0  0  0  0  0  0  0  0  0
   42.2030  -38.5490  108.0530 C   0  0  0  0  0  0  0  0  0  0  0  0
   40.9250  -38.2990  107.6380 O   0  0  0  0  0  0  0  0  0  0  0  0
   40.2230  -39.3680  107.0070 C   0  0  0  0  0  0  0  0  0  0  0  0
   39.8190  -38.9330  105.6020 C   0  0  0  0  0  0  0  0  0  0  0  0
   40.2560  -39.9390  104.5400 C   0  0  0  0  0  0  0  0  0  0  0  0
   41.6700  -39.8200  104.3860 O   0  0  0  0  0  0  0  0  0  0  0  0
   42.1810  -39.8670  103.1160 C   0  0  0  0  0  0  0  0  0  0  0  0
   41.7880  -39.0280  102.0710 C   0  0  0  0  0  0  0  0  0  0  0  0
   42.3680  -39.1500  100.8010 C   0  0  0  0  0  0  0  0  0  0  0  0
   43.3550  -40.1130  100.5460 C   0  0  0  0  0  0  0  0  0  0  0  0
   43.9850  -40.2690   99.1800 C   0  0  0  0  0  0  0  0  0  0  0  0
   44.6080  -41.6620   98.9760 C   0  0  0  0  0  0  0  0  0  0  0  0
   44.3620  -41.9850   97.5100 C   0  0  0  0  0  0  0  0  0  0  0  0
   42.9830  -41.4020   97.2580 C   0  0  0  0  0  0  0  0  0  0  0  0
   43.0140  -40.0700   97.9980 C   0  0  0  0  0  0  0  0  0  0  0  0
   43.7400  -40.9590  101.5930 C   0  0  0  0  0  0  0  0  0  0  0  0
   43.1620  -40.8380  102.8620 C   0  0  0  0  0  0  0  0  0  0  0  0
   43.7010  -41.9200  104.1010 Cl  0  0  0  0  0  0  0  0  0  0  0  0
   42.6540  -39.8490  107.8100 C   0  0  0  0  0  0  0  0  0  0  0  0
   43.9420  -40.2380  108.1800 C   0  0  0  0  0  0  0  0  0  0  0  0
   44.2800  -41.5330  107.8980 O   0  0  0  0  0  0  0  0  0  0  0  0
  2  1  1  1
  2  3  1  0
  3  4  2  0
  3  5  1  0
  2  6  1  0
  6  7  1  0
  7  8  1  0
  8  9  2  0
  9 10  1  0
 10 11  2  0
 11 12  1  0
 12 13  1  0
 13 14  1  0
 14 15  1  0
 15 16  1  0
 16 17  1  0
 17 18  2  0
 18 19  1  0
 19 20  2  0
 20 21  1  0
 21 22  1  0
 22 23  1  0
 23 24  1  0
 24 25  1  0
 20 26  1  0
 26 27  2  0
 27 28  1  0
 11 29  1  0
 29 30  2  0
 30 31  1  0
 31  2  1  0
 30  8  1  0
 27 17  1  0
 25 21  1  0
M  END
$$$$
