OOZNMURDAKWFQS-RUZDIDTESA-N
     RDKit          3D

 31 34  0  0  0  0  0  0  0  0999 V2000
   48.4500  -35.2010  106.3240 C   0  0  0  0  0  0  0  0  0  0  0  0
   48.2770  -36.2020  107.4740 C   0  0  2  0  0  0  0  0  0  0  0  0
   48.4760  -35.4190  108.7870 C   0  0  0  0  0  0  0  0  0  0  0  0
   47.6780  -35.2840  109.7010 O   0  0  0  0  0  0  0  0  0  0  0  0
   49.6780  -34.8050  108.8680 O   0  0  0  0  0  0  0  0  0  0  0  0
   49.2920  -37.3440  107.3150 C   0  0  0  0  0  0  0  0  0  0  0  0
   49.0830  -38.3890  108.4020 C   0  0  0  0  0  0  0  0  0  0  0  0
   47.6240  -38.7030  108.5510 C   0  0  0  0  0  0  0  0  0  0  0  0
   47.2210  -39.8550  109.2370 C   0  0  0  0  0  0  0  0  0  0  0  0
   45.8640  -40.1600  109.3830 C   0  0  0  0  0  0  0  0  0  0  0  0
   44.8940  -39.3130  108.8460 C   0  0  0  0  0  0  0  0  0  0  0  0
   43.5400  -39.4970  108.9120 O   0  0  0  0  0  0  0  0  0  0  0  0
   42.7960  -39.2990  107.7120 C   0  0  0  0  0  0  0  0  0  0  0  0
   42.9390  -40.5350  106.8320 C   0  0  0  0  0  0  0  0  0  0  0  0
   43.5480  -40.2070  105.4710 C   0  0  0  0  0  0  0  0  0  0  0  0
   42.6820  -40.7400  104.4700 O   0  0  0  0  0  0  0  0  0  0  0  0
   43.1840  -40.8900  103.2040 C   0  0  0  0  0  0  0  0  0  0  0  0
   43.8940  -42.0080  102.7590 C   0  0  0  0  0  0  0  0  0  0  0  0
   44.3720  -42.0730  101.4430 C   0  0  0  0  0  0  0  0  0  0  0  0
   44.1500  -41.0230  100.5410 C   0  0  0  0  0  0  0  0  0  0  0  0
   44.6670  -41.0680   99.1190 C   0  0  0  0  0  0  0  0  0  0  0  0
   45.0700  -42.4890   98.6850 C   0  0  0  0  0  0  0  0  0  0  0  0
   44.6900  -42.5670   97.2140 C   0  0  0  0  0  0  0  0  0  0  0  0
   43.3960  -41.7750   97.1520 C   0  0  0  0  0  0  0  0  0  0  0  0
   43.6630  -40.5760   98.0560 C   0  0  0  0  0  0  0  0  0  0  0  0
   43.4460  -39.8990  100.9920 C   0  0  0  0  0  0  0  0  0  0  0  0
   42.9680  -39.8330  102.3060 C   0  0  0  0  0  0  0  0  0  0  0  0
   42.1030  -38.4110  102.7800 Cl  0  0  0  0  0  0  0  0  0  0  0  0
   45.2960  -38.1570  108.1740 C   0  0  0  0  0  0  0  0  0  0  0  0
   46.6490  -37.8460  108.0370 C   0  0  0  0  0  0  0  0  0  0  0  0
   46.9330  -36.6920  107.3580 O   0  0  0  0  0  0  0  0  0  0  0  0
  2  1  1  6
  2  3  1  0
  3  4  2  0
  3  5  1  0
  2  6  1  0
  6  7  1  0
  7  8  1  0
  8  9  2  0
  9 10  1  0
 10 11  2  0
 11 12  1  0
 12 13  1  0
 13 14  1  0
 14 15  1  0
 15 16  1  0
 16 17  1  0
 17 18  2  0
 18 19  1  0
 19 20  2  0
 20 21  1  0
 21 22  1  0
 22 23  1  0
 23 24  1  0
 24 25  1  0
 20 26  1  0
 26 27  2  0
 27 28  1  0
 11 29  1  0
 29 30  2  0
 30 31  1  0
 31  2  1  0
 30  8  1  0
 27 17  1  0
 25 21  1  0
M  END
$$$$
