OOZNMURDAKWFQS-RUZDIDTESA-N
     RDKit          3D

 31 34  0  0  0  0  0  0  0  0999 V2000
   42.6930  -39.2150  108.5110 C   0  0  0  0  0  0  0  0  0  0  0  0
   41.3960  -38.3980  108.5800 C   0  0  2  0  0  0  0  0  0  0  0  0
   41.7820  -36.9210  108.3740 C   0  0  0  0  0  0  0  0  0  0  0  0
   41.3160  -35.9440  108.9400 O   0  0  0  0  0  0  0  0  0  0  0  0
   42.7280  -36.7410  107.4250 O   0  0  0  0  0  0  0  0  0  0  0  0
   40.7110  -38.6410  109.9330 C   0  0  0  0  0  0  0  0  0  0  0  0
   39.3810  -37.9020  109.9900 C   0  0  0  0  0  0  0  0  0  0  0  0
   38.6140  -38.1090  108.7180 C   0  0  0  0  0  0  0  0  0  0  0  0
   37.2460  -37.8130  108.6680 C   0  0  0  0  0  0  0  0  0  0  0  0
   36.5190  -38.0020  107.4880 C   0  0  0  0  0  0  0  0  0  0  0  0
   37.1530  -38.4860  106.3440 C   0  0  0  0  0  0  0  0  0  0  0  0
   36.5610  -38.7200  105.1330 O   0  0  0  0  0  0  0  0  0  0  0  0
   37.4180  -39.0250  104.0360 C   0  0  0  0  0  0  0  0  0  0  0  0
   37.3430  -37.8900  103.0210 C   0  0  0  0  0  0  0  0  0  0  0  0
   38.5890  -37.8200  102.1410 C   0  0  0  0  0  0  0  0  0  0  0  0
   39.6800  -38.3540  102.8920 O   0  0  0  0  0  0  0  0  0  0  0  0
   40.7760  -38.7980  102.2010 C   0  0  0  0  0  0  0  0  0  0  0  0
   41.0250  -38.5320  100.8520 C   0  0  0  0  0  0  0  0  0  0  0  0
   42.1750  -39.0300  100.2280 C   0  0  0  0  0  0  0  0  0  0  0  0
   43.1060  -39.8050  100.9350 C   0  0  0  0  0  0  0  0  0  0  0  0
   44.3490  -40.3620  100.2770 C   0  0  0  0  0  0  0  0  0  0  0  0
   44.3940  -41.9000  100.3150 C   0  0  0  0  0  0  0  0  0  0  0  0
   45.0450  -42.3000   98.9990 C   0  0  0  0  0  0  0  0  0  0  0  0
   44.4830  -41.2880   98.0170 C   0  0  0  0  0  0  0  0  0  0  0  0
   44.5160  -39.9760   98.7930 C   0  0  0  0  0  0  0  0  0  0  0  0
   42.8490  -40.0780  102.2850 C   0  0  0  0  0  0  0  0  0  0  0  0
   41.7000  -39.5800  102.9110 C   0  0  0  0  0  0  0  0  0  0  0  0
   41.4620  -39.9600  104.5820 Cl  0  0  0  0  0  0  0  0  0  0  0  0
   38.5200  -38.7670  106.3900 C   0  0  0  0  0  0  0  0  0  0  0  0
   39.2500  -38.5690  107.5630 C   0  0  0  0  0  0  0  0  0  0  0  0
   40.5810  -38.8800  107.5010 O   0  0  0  0  0  0  0  0  0  0  0  0
  2  1  1  1
  2  3  1  0
  3  4  2  0
  3  5  1  0
  2  6  1  0
  6  7  1  0
  7  8  1  0
  8  9  2  0
  9 10  1  0
 10 11  2  0
 11 12  1  0
 12 13  1  0
 13 14  1  0
 14 15  1  0
 15 16  1  0
 16 17  1  0
 17 18  2  0
 18 19  1  0
 19 20  2  0
 20 21  1  0
 21 22  1  0
 22 23  1  0
 23 24  1  0
 24 25  1  0
 20 26  1  0
 26 27  2  0
 27 28  1  0
 11 29  1  0
 29 30  2  0
 30 31  1  0
 31  2  1  0
 30  8  1  0
 27 17  1  0
 25 21  1  0
M  END
$$$$
