ISAHPBXZZIAMMK-JBZHPUCOSA-N
     RDKit          3D

 28 31  0  0  0  0  0  0  0  0999 V2000
    8.8810  -25.7110   24.9680 N   0  0  0  0  0  0  0  0  0  0  0  0
    8.1270  -26.0440   24.1520 C   0  0  0  0  0  0  0  0  0  0  0  0
    7.1200  -26.4590   23.1560 C   0  0  1  0  0  0  0  0  0  0  0  0
    6.5700  -27.8420   23.5440 C   0  0  0  0  0  0  0  0  0  0  0  0
    5.4270  -28.2850   22.6370 C   0  0  0  0  0  0  0  0  0  0  0  0
    4.3050  -27.2540   22.6160 C   0  0  0  0  0  0  0  0  0  0  0  0
    4.8250  -25.8860   22.1890 C   0  0  0  0  0  0  0  0  0  0  0  0
    5.9880  -25.4120   23.0780 C   0  0  2  0  0  0  0  0  0  0  0  0
    6.4890  -24.1170   22.6200 N   0  0  0  0  0  0  0  0  0  0  0  0
    7.6740  -23.8730   21.9930 C   0  0  0  0  0  0  0  0  0  0  0  0
    7.6920  -22.5150   21.7290 C   0  0  0  0  0  0  0  0  0  0  0  0
    8.7210  -21.7330   21.0700 C   0  0  0  0  0  0  0  0  0  0  0  0
    9.9950  -22.2170   21.1380 N   0  0  0  0  0  0  0  0  0  0  0  0
    8.4810  -20.6900   20.4680 O   0  0  0  0  0  0  0  0  0  0  0  0
    6.4530  -22.0270   22.2570 C   0  0  0  0  0  0  0  0  0  0  0  0
    6.1250  -20.7110   22.1910 N   0  0  0  0  0  0  0  0  0  0  0  0
    5.2540  -19.9860   21.3470 C   0  0  0  0  0  0  0  0  0  0  0  0
    5.0770  -20.2800   19.9780 C   0  0  0  0  0  0  0  0  0  0  0  0
    4.2060  -19.5390   19.1720 C   0  0  0  0  0  0  0  0  0  0  0  0
    3.5200  -18.5050   19.7750 C   0  0  0  0  0  0  0  0  0  0  0  0
    3.6600  -18.1740   21.1170 C   0  0  0  0  0  0  0  0  0  0  0  0
    4.5270  -18.9130   21.9090 C   0  0  0  0  0  0  0  0  0  0  0  0
    2.8290  -17.0400   21.5150 C   0  0  0  0  0  0  0  0  0  0  0  0
    2.1030  -16.5510   20.4950 C   0  0  0  0  0  0  0  0  0  0  0  0
    2.3760  -17.4280   19.0160 S   0  0  0  0  0  0  0  0  0  0  0  0
    3.0910  -16.5990   18.0690 O   0  0  0  0  0  0  0  0  0  0  0  0
    1.1990  -18.1910   18.6650 O   0  0  0  0  0  0  0  0  0  0  0  0
    5.7330  -23.0240   22.7800 N   0  0  0  0  0  0  0  0  0  0  0  0
  1  2  3  0
  3  2  1  1
  3  4  1  0
  4  5  1  0
  5  6  1  0
  6  7  1  0
  7  8  1  0
  8  9  1  6
  9 10  1  0
 10 11  2  0
 11 12  1  0
 12 13  1  0
 12 14  2  0
 11 15  1  0
 15 16  1  0
 16 17  1  0
 17 18  2  0
 18 19  1  0
 19 20  2  0
 20 21  1  0
 21 22  2  0
 21 23  1  0
 23 24  2  0
 24 25  1  0
 25 26  2  0
 25 27  2  0
 15 28  2  0
  8  3  1  0
 28  9  1  0
 22 17  1  0
 25 20  1  0
M  END
$$$$
