HXXOFJVFKMAZGM-BAQGIRSFSA-N
     RDKit          3D

 27 28  0  0  0  0  0  0  0  0999 V2000
   13.4000    1.4810   32.9040 N   0  0  0  0  0  0  0  0  0  0  0  0
   12.5040    1.6300   32.0060 C   0  0  0  0  0  0  0  0  0  0  0  0
   11.2540    1.1020   32.2370 N   0  0  0  0  0  0  0  0  0  0  0  0
   10.5540    1.3890   31.1550 C   0  0  0  0  0  0  0  0  0  0  0  0
    9.2430    1.0380   30.9810 N   0  0  0  0  0  0  0  0  0  0  0  0
    8.4810    0.2620   31.9470 C   0  0  0  0  0  0  0  0  0  0  0  0
    7.8000   -0.9200   31.2850 C   0  0  0  0  0  0  0  0  0  0  0  0
    8.7930   -2.3880   31.4350 S   0  0  0  0  0  0  0  0  0  0  0  0
   10.1860   -2.0160   31.5310 O   0  0  0  0  0  0  0  0  0  0  0  0
    8.1720   -3.3020   32.3650 O   0  0  0  0  0  0  0  0  0  0  0  0
    8.6000   -2.9720   29.9430 O   0  0  0  0  0  0  0  0  0  0  0  0
   11.4050    2.1540   30.1580 C   0  0  0  0  0  0  0  0  0  0  0  0
   11.0100    2.5780   28.9530 C   0  0  0  0  0  0  0  0  0  0  0  0
   11.9010    3.3590   28.0420 C   0  0  2  0  0  0  0  0  0  0  0  0
   11.0770    4.2770   27.3190 O   0  0  0  0  0  0  0  0  0  0  0  0
   12.6710    2.4610   27.0480 C   0  0  0  0  0  0  0  0  0  0  0  0
   13.6770    3.2000   26.2990 N   0  0  0  0  0  0  0  0  0  0  0  0
   15.0150    3.0500   26.5900 C   0  0  0  0  0  0  0  0  0  0  0  0
   15.3970    2.3570   27.5300 O   0  0  0  0  0  0  0  0  0  0  0  0
   15.9290    3.7620   25.7300 C   0  0  0  0  0  0  0  0  0  0  0  0
   16.2680    5.1050   25.6260 C   0  0  0  0  0  0  0  0  0  0  0  0
   17.2320    5.2250   24.5990 C   0  0  0  0  0  0  0  0  0  0  0  0
   17.9930    6.8620   24.0940 Br  0  0  0  0  0  0  0  0  0  0  0  0
   17.4690    3.9760   24.0940 C   0  0  0  0  0  0  0  0  0  0  0  0
   18.6590    3.4840   22.7000 Br  0  0  0  0  0  0  0  0  0  0  0  0
   16.6810    3.0960   24.7780 N   0  0  0  0  0  0  0  0  0  0  0  0
   12.5950    2.2470   30.8060 N   0  0  0  0  0  0  0  0  0  0  0  0
  1  2  2  0
  2  3  1  0
  3  4  2  0
  4  5  1  0
  5  6  1  0
  6  7  1  0
  7  8  1  0
  8  9  2  0
  8 10  2  0
  8 11  1  0
  4 12  1  0
 12 13  2  0
 13 14  1  0
 14 15  1  6
 14 16  1  0
 16 17  1  0
 17 18  1  0
 18 19  2  0
 18 20  1  0
 20 21  2  0
 21 22  1  0
 22 23  1  0
 22 24  2  0
 24 25  1  0
 24 26  1  0
 12 27  1  0
 27  2  1  0
 26 20  1  0
M  END
$$$$
