QIUASFSNWYMDFS-NILGECQDSA-N
     RDKit          3D

 38 41  0  0  0  0  0  0  0  0999 V2000
   37.8120   42.1880   36.5000 C   0  0  0  0  0  0  0  0  0  0  0  0
   37.5080   43.0790   37.4540 C   0  0  0  0  0  0  0  0  0  0  0  0
   38.3580   44.2580   37.8300 C   0  0  0  0  0  0  0  0  0  0  0  0
   38.1330   45.3210   36.8360 N   0  0  0  0  0  0  0  0  0  0  0  0
   36.8340   45.6350   36.4180 C   0  0  0  0  0  0  0  0  0  0  0  0
   35.7810   46.2780   36.9660 C   0  0  0  0  0  0  0  0  0  0  0  0
   34.5150   46.1860   36.1810 C   0  0  0  0  0  0  0  0  0  0  0  0
   34.4720   46.0720   34.9620 O   0  0  0  0  0  0  0  0  0  0  0  0
   33.3840   46.1050   36.9310 O   0  0  0  0  0  0  0  0  0  0  0  0
   33.2700   46.7090   38.2550 C   0  0  2  0  0  0  0  0  0  0  0  0
   32.7320   48.1440   38.0590 C   0  0  0  0  0  0  0  0  0  0  0  0
   31.5110   48.1570   37.3230 O   0  0  0  0  0  0  0  0  0  0  0  0
   30.3950   47.7380   38.0970 C   0  0  0  0  0  0  0  0  0  0  0  0
   34.5610   46.5410   39.1270 C   0  0  1  0  0  0  0  0  0  0  0  0
   34.7570   45.0360   39.4630 C   0  0  0  0  0  0  0  0  0  0  0  0
   35.7230   46.9800   38.2400 C   0  0  0  0  0  0  0  0  0  0  0  0
   36.4930   48.0510   38.4910 C   0  0  0  0  0  0  0  0  0  0  0  0
   37.4450   48.5170   37.5980 O   0  0  0  0  0  0  0  0  0  0  0  0
   36.3110   48.8440   39.7280 C   0  0  0  0  0  0  0  0  0  0  0  0
   37.0070   49.8440   39.8840 O   0  0  0  0  0  0  0  0  0  0  0  0
   35.3180   48.3840   40.7310 C   0  0  0  0  0  0  0  0  0  0  0  0
   34.4970   47.3320   40.4680 C   0  0  0  0  0  0  0  0  0  0  0  0
   33.5070   46.8240   41.5450 C   0  0  2  0  0  0  0  0  0  0  0  0
   32.1780   46.8320   40.9970 O   0  0  0  0  0  0  0  0  0  0  0  0
   31.3290   45.8870   41.4950 C   0  0  0  0  0  0  0  0  0  0  0  0
   31.3540   44.6690   40.6250 C   0  0  0  0  0  0  0  0  0  0  0  0
   30.6560   46.0050   42.5060 O   0  0  0  0  0  0  0  0  0  0  0  0
   33.4740   47.6300   42.8670 C   0  0  0  0  0  0  0  0  0  0  0  0
   34.8470   48.1910   43.1920 C   0  0  2  0  0  0  0  0  0  0  0  0
   35.8660   47.0790   43.5070 C   0  0  0  0  0  0  0  0  0  0  0  0
   34.9040   49.1820   44.3340 C   0  0  0  0  0  0  0  0  0  0  0  0
   34.2780   49.0700   45.3790 O   0  0  0  0  0  0  0  0  0  0  0  0
   35.8580   50.3190   44.0340 C   0  0  0  0  0  0  0  0  0  0  0  0
   36.3660   49.9710   42.6290 C   0  0  0  0  0  0  0  0  0  0  0  0
   35.2240   49.1380   42.0340 C   0  0  1  0  0  0  0  0  0  0  0  0
   39.3530   46.0020   36.3990 C   0  0  0  0  0  0  0  0  0  0  0  0
   40.3680   46.1280   37.5080 C   0  0  0  0  0  0  0  0  0  0  0  0
   40.5320   47.1330   38.3830 C   0  0  0  0  0  0  0  0  0  0  0  0
  1  2  2  0
  2  3  1  0
  3  4  1  0
  4  5  1  0
  5  6  2  0
  6  7  1  0
  7  8  2  0
  7  9  1  0
  9 10  1  0
 10 11  1  6
 11 12  1  0
 12 13  1  0
 10 14  1  0
 14 15  1  1
 14 16  1  0
 16 17  2  0
 17 18  1  0
 17 19  1  0
 19 20  2  0
 19 21  1  0
 21 22  2  0
 22 23  1  0
 23 24  1  6
 24 25  1  0
 25 26  1  0
 25 27  2  0
 23 28  1  0
 28 29  1  0
 29 30  1  1
 29 31  1  0
 31 32  2  0
 31 33  1  0
 33 34  1  0
 35 34  1  1
  4 36  1  0
 36 37  1  0
 37 38  2  0
 16  6  1  0
 35 21  1  0
 22 14  1  0
 35 29  1  0
M  END
$$$$
