CWHUFRVAEUJCEF-UHFFFAOYSA-N
     RDKit          3D

 29 32  0  0  0  0  0  0  0  0999 V2000
   30.7180   47.6420   47.7980 N   0  0  0  0  0  0  0  0  0  0  0  0
   31.0320   47.2950   46.5040 C   0  0  0  0  0  0  0  0  0  0  0  0
   30.2370   46.4200   45.7860 C   0  0  0  0  0  0  0  0  0  0  0  0
   30.5620   46.1060   44.4520 C   0  0  0  0  0  0  0  0  0  0  0  0
   29.6910   45.1250   43.7060 C   0  0  0  0  0  0  0  0  0  0  0  0
   30.3830   44.0970   43.1400 F   0  0  0  0  0  0  0  0  0  0  0  0
   28.7830   44.5150   44.5280 F   0  0  0  0  0  0  0  0  0  0  0  0
   28.9450   45.6950   42.7210 F   0  0  0  0  0  0  0  0  0  0  0  0
   31.6810   46.7210   43.8610 C   0  0  0  0  0  0  0  0  0  0  0  0
   32.0940   46.4930   42.4720 C   0  0  0  0  0  0  0  0  0  0  0  0
   31.3420   45.7570   41.5810 C   0  0  0  0  0  0  0  0  0  0  0  0
   31.8430   45.6020   40.3070 C   0  0  0  0  0  0  0  0  0  0  0  0
   31.1560   44.8620   39.3470 N   0  0  0  0  0  0  0  0  0  0  0  0
   31.5590   44.9760   37.9350 C   0  0  0  0  0  0  0  0  0  0  0  0
   30.5130   44.3160   37.0230 C   0  0  0  0  0  0  0  0  0  0  0  0
   30.2510   42.9590   37.4060 O   0  0  0  0  0  0  0  0  0  0  0  0
   29.7440   42.9210   38.7490 C   0  0  0  0  0  0  0  0  0  0  0  0
   30.7500   43.5020   39.7520 C   0  0  0  0  0  0  0  0  0  0  0  0
   33.0330   46.1380   39.9820 N   0  0  0  0  0  0  0  0  0  0  0  0
   33.7140   46.8570   40.8850 C   0  0  0  0  0  0  0  0  0  0  0  0
   34.9270   47.4110   40.5240 N   0  0  0  0  0  0  0  0  0  0  0  0
   35.1220   47.7540   39.1150 C   0  0  0  0  0  0  0  0  0  0  0  0
   36.6030   48.0390   38.8290 C   0  0  0  0  0  0  0  0  0  0  0  0
   37.1420   49.0130   39.7340 O   0  0  0  0  0  0  0  0  0  0  0  0
   37.0570   48.5240   41.0810 C   0  0  0  0  0  0  0  0  0  0  0  0
   35.6040   48.2640   41.5030 C   0  0  0  0  0  0  0  0  0  0  0  0
   33.2660   47.0480   42.1320 N   0  0  0  0  0  0  0  0  0  0  0  0
   32.3920   47.6070   44.6720 C   0  0  0  0  0  0  0  0  0  0  0  0
   32.0980   47.8960   45.9630 N   0  0  0  0  0  0  0  0  0  0  0  0
  1  2  1  0
  2  3  2  0
  3  4  1  0
  4  5  1  0
  5  6  1  0
  5  7  1  0
  5  8  1  0
  4  9  2  0
  9 10  1  0
 10 11  2  0
 11 12  1  0
 12 13  1  0
 13 14  1  0
 14 15  1  0
 15 16  1  0
 16 17  1  0
 17 18  1  0
 12 19  2  0
 19 20  1  0
 20 21  1  0
 21 22  1  0
 22 23  1  0
 23 24  1  0
 24 25  1  0
 25 26  1  0
 20 27  2  0
  9 28  1  0
 28 29  2  0
 29  2  1  0
 27 10  1  0
 18 13  1  0
 26 21  1  0
M  END
$$$$
