BVBGZXXLVHYBKI-UHFFFAOYSA-N
     RDKit          3D

 30 33  0  0  0  0  0  0  0  0999 V2000
    1.3220   12.6420   22.0430 N   0  0  0  0  0  0  0  0  0  0  0  0
    0.0750   12.0860   22.2790 C   0  0  0  0  0  0  0  0  0  0  0  0
   -0.3000   11.7590   23.5800 C   0  0  0  0  0  0  0  0  0  0  0  0
   -1.5380   11.1700   23.8290 C   0  0  0  0  0  0  0  0  0  0  0  0
   -2.3250   10.9410   22.7060 C   0  0  0  0  0  0  0  0  0  0  0  0
   -3.5720   10.3910   22.5560 N   0  0  0  0  0  0  0  0  0  0  0  0
   -3.9570   10.3620   21.2290 C   0  0  0  0  0  0  0  0  0  0  0  0
   -5.2610    9.8260   20.7880 C   0  0  0  0  0  0  0  0  0  0  0  0
   -5.3050    8.5770   20.1470 C   0  0  0  0  0  0  0  0  0  0  0  0
   -6.5120    8.0160   19.7020 C   0  0  0  0  0  0  0  0  0  0  0  0
   -6.5290    6.6650   19.0250 C   0  0  0  0  0  0  0  0  0  0  0  0
   -5.4040    6.4600   18.0390 C   0  0  0  0  0  0  0  0  0  0  0  0
   -5.1410    7.1190   17.0470 O   0  0  0  0  0  0  0  0  0  0  0  0
   -4.6130    5.4230   18.3880 O   0  0  0  0  0  0  0  0  0  0  0  0
   -7.7030    8.7260   19.9000 C   0  0  0  0  0  0  0  0  0  0  0  0
   -7.7110    9.9780   20.5380 C   0  0  0  0  0  0  0  0  0  0  0  0
   -8.9930   10.6790   20.7030 C   0  0  0  0  0  0  0  0  0  0  0  0
   -9.6100   11.3080   19.6080 C   0  0  0  0  0  0  0  0  0  0  0  0
  -10.8260   11.9810   19.7530 C   0  0  0  0  0  0  0  0  0  0  0  0
  -11.4460   12.0420   20.9990 C   0  0  0  0  0  0  0  0  0  0  0  0
  -10.8400   11.4220   22.1000 C   0  0  0  0  0  0  0  0  0  0  0  0
  -11.4880   11.4850   23.4160 N   0  0  0  0  0  0  0  0  0  0  0  0
  -11.4650   12.5680   24.0170 O   0  0  0  0  0  0  0  0  0  0  0  0
  -12.0130   10.4500   23.8500 O   0  0  0  0  0  0  0  0  0  0  0  0
   -9.6220   10.7430   21.9570 C   0  0  0  0  0  0  0  0  0  0  0  0
   -6.4810   10.5110   20.9830 C   0  0  0  0  0  0  0  0  0  0  0  0
   -6.4580   11.7250   21.6410 O   0  0  0  0  0  0  0  0  0  0  0  0
   -2.8980   10.9150   20.5200 C   0  0  0  0  0  0  0  0  0  0  0  0
   -1.8830   11.2780   21.4360 C   0  0  0  0  0  0  0  0  0  0  0  0
   -0.6790   11.8480   21.1940 N   0  0  0  0  0  0  0  0  0  0  0  0
  1  2  1  0
  2  3  2  0
  3  4  1  0
  4  5  2  0
  5  6  1  0
  6  7  1  0
  7  8  1  0
  8  9  2  0
  9 10  1  0
 10 11  1  0
 11 12  1  0
 12 13  2  0
 12 14  1  0
 10 15  2  0
 15 16  1  0
 16 17  1  0
 17 18  2  0
 18 19  1  0
 19 20  2  0
 20 21  1  0
 21 22  1  0
 22 23  2  0
 22 24  1  0
 21 25  2  0
 16 26  2  0
 26 27  1  0
  7 28  2  0
 28 29  1  0
 29 30  2  0
 30  2  1  0
 29  5  1  0
 26  8  1  0
 25 17  1  0
M  CHG  2  22   1  24  -1
M  END
$$$$
