BVBGZXXLVHYBKI-UHFFFAOYSA-N
     RDKit          3D

 30 33  0  0  0  0  0  0  0  0999 V2000
   -7.2770   17.0290   26.3240 N   0  0  0  0  0  0  0  0  0  0  0  0
   -7.1260   15.9250   25.5000 C   0  0  0  0  0  0  0  0  0  0  0  0
   -8.2350   15.1440   25.1820 C   0  0  0  0  0  0  0  0  0  0  0  0
   -8.0940   14.0130   24.3810 C   0  0  0  0  0  0  0  0  0  0  0  0
   -6.7970   13.7430   23.9550 C   0  0  0  0  0  0  0  0  0  0  0  0
   -6.2780   12.7420   23.1760 N   0  0  0  0  0  0  0  0  0  0  0  0
   -4.9100   12.8780   23.0230 C   0  0  0  0  0  0  0  0  0  0  0  0
   -4.1000   11.9370   22.2220 C   0  0  0  0  0  0  0  0  0  0  0  0
   -2.7370   11.7790   22.5260 C   0  0  0  0  0  0  0  0  0  0  0  0
   -1.9150   10.9040   21.8010 C   0  0  0  0  0  0  0  0  0  0  0  0
   -0.4550   10.7470   22.1590 C   0  0  0  0  0  0  0  0  0  0  0  0
   -0.0530   11.4700   23.4220 C   0  0  0  0  0  0  0  0  0  0  0  0
   -0.2790   11.1520   24.5770 O   0  0  0  0  0  0  0  0  0  0  0  0
    0.6760   12.5760   23.1570 O   0  0  0  0  0  0  0  0  0  0  0  0
   -2.4700   10.1730   20.7430 C   0  0  0  0  0  0  0  0  0  0  0  0
   -3.8270   10.2940   20.4020 C   0  0  0  0  0  0  0  0  0  0  0  0
   -4.3450    9.5090   19.2710 C   0  0  0  0  0  0  0  0  0  0  0  0
   -4.6350    8.1420   19.4250 C   0  0  0  0  0  0  0  0  0  0  0  0
   -5.1240    7.3830   18.3580 C   0  0  0  0  0  0  0  0  0  0  0  0
   -5.3280    7.9790   17.1150 C   0  0  0  0  0  0  0  0  0  0  0  0
   -5.0390    9.3390   16.9470 C   0  0  0  0  0  0  0  0  0  0  0  0
   -5.2500    9.9710   15.6390 N   0  0  0  0  0  0  0  0  0  0  0  0
   -4.5280   10.9310   15.3400 O   0  0  0  0  0  0  0  0  0  0  0  0
   -6.1420    9.5090   14.9130 O   0  0  0  0  0  0  0  0  0  0  0  0
   -4.5520   10.1040   18.0170 C   0  0  0  0  0  0  0  0  0  0  0  0
   -4.6310   11.1760   21.1570 C   0  0  0  0  0  0  0  0  0  0  0  0
   -5.9760   11.2960   20.8680 O   0  0  0  0  0  0  0  0  0  0  0  0
   -4.5640   14.0140   23.7430 C   0  0  0  0  0  0  0  0  0  0  0  0
   -5.7350   14.5550   24.3230 C   0  0  0  0  0  0  0  0  0  0  0  0
   -5.8730   15.6530   25.1030 N   0  0  0  0  0  0  0  0  0  0  0  0
  1  2  1  0
  2  3  2  0
  3  4  1  0
  4  5  2  0
  5  6  1  0
  6  7  1  0
  7  8  1  0
  8  9  2  0
  9 10  1  0
 10 11  1  0
 11 12  1  0
 12 13  2  0
 12 14  1  0
 10 15  2  0
 15 16  1  0
 16 17  1  0
 17 18  2  0
 18 19  1  0
 19 20  2  0
 20 21  1  0
 21 22  1  0
 22 23  2  0
 22 24  1  0
 21 25  2  0
 16 26  2  0
 26 27  1  0
  7 28  2  0
 28 29  1  0
 29 30  2  0
 30  2  1  0
 29  5  1  0
 26  8  1  0
 25 17  1  0
M  CHG  2  22   1  24  -1
M  END
$$$$
