
 OpenBabel09082614273D

 24 27  0  0  0  0  0  0  0  0999 V2000
  100.3620  106.2690  110.6440 S   0  0  0  0  0  0  0  0  0  0  0  0
   99.0410  107.5270  110.6030 C   0  0  0  0  0  0  0  0  0  0  0  0
   97.7490  106.7690  110.2820 C   0  0  0  0  0  0  0  0  0  0  0  0
   97.6000  105.6640  110.8780 O   0  0  0  0  0  0  0  0  0  0  0  0
   96.9740  107.3280  109.4510 O   0  0  0  0  0  0  0  0  0  0  0  0
  101.3290  106.8110  109.3110 C   0  0  0  0  0  0  0  0  0  0  0  0
  101.0090  107.8080  108.5100 N   0  0  0  0  0  0  0  0  0  0  0  0
  102.4450  106.1580  108.8320 N   0  0  0  0  0  0  0  0  0  0  0  0
  101.9720  107.8840  107.5310 N   0  0  0  0  0  0  0  0  0  0  0  0
  102.8460  106.9270  107.7590 C   0  0  0  0  0  0  0  0  0  0  0  0
  104.4410  106.7290  106.7210 Br  0  0  0  0  0  0  0  0  0  0  0  0
  103.0270  104.9450  109.2720 C   0  0  0  0  0  0  0  0  0  0  0  0
  103.7280  104.9700  110.4770 C   0  0  0  0  0  0  0  0  0  0  0  0
  102.9470  103.7600  108.4890 C   0  0  0  0  0  0  0  0  0  0  0  0
  104.3790  103.8250  110.9180 C   0  0  0  0  0  0  0  0  0  0  0  0
  102.1850  103.6520  107.2950 C   0  0  0  0  0  0  0  0  0  0  0  0
  103.6380  102.6020  108.9500 C   0  0  0  0  0  0  0  0  0  0  0  0
  104.3500  102.6240  110.1880 C   0  0  0  0  0  0  0  0  0  0  0  0
  102.1490  102.4800  106.5400 C   0  0  0  0  0  0  0  0  0  0  0  0
  103.5920  101.4370  108.1510 C   0  0  0  0  0  0  0  0  0  0  0  0
  102.8640  101.3740  106.9630 C   0  0  0  0  0  0  0  0  0  0  0  0
  105.0970  101.4140  110.7320 C   0  0  0  0  0  0  0  0  0  0  0  0
  104.4030  100.4680  111.6900 C   0  0  0  0  0  0  0  0  0  0  0  0
  105.5060  101.3480  112.1890 C   0  0  0  0  0  0  0  0  0  0  0  0
  2  1  1  0  0  0  0
  3  2  1  0  0  0  0
  3  4  1  0  0  0  0
  5  3  2  0  0  0  0
  6  1  1  0  0  0  0
  7  6  2  0  0  0  0
  8 12  1  0  0  0  0
  8  6  1  0  0  0  0
  9 10  2  0  0  0  0
  9  7  1  0  0  0  0
 10  8  1  0  0  0  0
 11 10  1  0  0  0  0
 12 13  1  0  0  0  0
 13 15  2  0  0  0  0
 14 17  1  0  0  0  0
 14 12  2  0  0  0  0
 16 14  1  0  0  0  0
 17 18  2  0  0  0  0
 18 22  1  0  0  0  0
 18 15  1  0  0  0  0
 19 21  1  0  0  0  0
 19 16  2  0  0  0  0
 20 17  1  0  0  0  0
 21 20  2  0  0  0  0
 22 23  1  0  0  0  0
 22 24  1  0  0  0  0
 23 24  1  0  0  0  0
M  END
>  <minimizedAffinity>
-8.83447456

>  <CNNscore>
0.781758189

>  <CNNaffinity>
6.65374899

$$$$

 OpenBabel09082614273D

 24 27  0  0  0  0  0  0  0  0999 V2000
  104.7300  103.6320  110.2240 S   0  0  0  0  0  0  0  0  0  0  0  0
  104.8890  102.4760  111.6270 C   0  0  0  0  0  0  0  0  0  0  0  0
  106.0420  101.5350  111.2670 C   0  0  0  0  0  0  0  0  0  0  0  0
  106.0150  100.3990  111.8220 O   0  0  0  0  0  0  0  0  0  0  0  0
  106.8990  101.9980  110.4570 O   0  0  0  0  0  0  0  0  0  0  0  0
  103.4670  102.8450  109.3340 C   0  0  0  0  0  0  0  0  0  0  0  0
  103.4520  101.5630  109.0280 N   0  0  0  0  0  0  0  0  0  0  0  0
  102.4300  103.4960  108.6990 N   0  0  0  0  0  0  0  0  0  0  0  0
  102.3420  101.3300  108.2520 N   0  0  0  0  0  0  0  0  0  0  0  0
  101.7160  102.4780  108.1000 C   0  0  0  0  0  0  0  0  0  0  0  0
  100.0350  102.6150  107.1960 Br  0  0  0  0  0  0  0  0  0  0  0  0
  102.1700  104.8840  108.6050 C   0  0  0  0  0  0  0  0  0  0  0  0
  102.8890  105.6090  107.6560 C   0  0  0  0  0  0  0  0  0  0  0  0
  101.2510  105.5240  109.4810 C   0  0  0  0  0  0  0  0  0  0  0  0
  102.7260  106.9850  107.5730 C   0  0  0  0  0  0  0  0  0  0  0  0
  100.4330  104.8310  110.4140 C   0  0  0  0  0  0  0  0  0  0  0  0
  101.1120  106.9390  109.3920 C   0  0  0  0  0  0  0  0  0  0  0  0
  101.8420  107.6820  108.4160 C   0  0  0  0  0  0  0  0  0  0  0  0
   99.5600  105.4950  111.2740 C   0  0  0  0  0  0  0  0  0  0  0  0
  100.2280  107.5810  110.2910 C   0  0  0  0  0  0  0  0  0  0  0  0
   99.4660  106.8740  111.2210 C   0  0  0  0  0  0  0  0  0  0  0  0
  101.7240  109.1930  108.2690 C   0  0  0  0  0  0  0  0  0  0  0  0
  102.9750  110.0470  108.2360 C   0  0  0  0  0  0  0  0  0  0  0  0
  102.0670  110.1120  109.4230 C   0  0  0  0  0  0  0  0  0  0  0  0
  1  2  1  0  0  0  0
  3  2  1  0  0  0  0
  3  4  1  0  0  0  0
  5  3  2  0  0  0  0
  6  1  1  0  0  0  0
  7  6  2  0  0  0  0
  8  6  1  0  0  0  0
  9  7  1  0  0  0  0
 10  9  2  0  0  0  0
 10  8  1  0  0  0  0
 11 10  1  0  0  0  0
 12  8  1  0  0  0  0
 12 14  1  0  0  0  0
 13 12  2  0  0  0  0
 14 16  1  0  0  0  0
 15 13  1  0  0  0  0
 15 18  2  0  0  0  0
 16 19  2  0  0  0  0
 17 14  2  0  0  0  0
 17 20  1  0  0  0  0
 18 17  1  0  0  0  0
 20 21  2  0  0  0  0
 21 19  1  0  0  0  0
 22 18  1  0  0  0  0
 22 24  1  0  0  0  0
 23 22  1  0  0  0  0
 23 24  1  0  0  0  0
M  END
>  <minimizedAffinity>
-7.74913549

>  <CNNscore>
0.739260316

>  <CNNaffinity>
6.64545584

$$$$

 OpenBabel09082614273D

 24 27  0  0  0  0  0  0  0  0999 V2000
  104.8660  102.9550  110.7400 S   0  0  0  0  0  0  0  0  0  0  0  0
  106.1410  101.6550  110.8560 C   0  0  0  0  0  0  0  0  0  0  0  0
  105.7750  100.8170  112.0840 C   0  0  0  0  0  0  0  0  0  0  0  0
  105.9300   99.5670  111.9600 O   0  0  0  0  0  0  0  0  0  0  0  0
  105.3530  101.4640  113.0880 O   0  0  0  0  0  0  0  0  0  0  0  0
  103.7970  102.2190  109.5900 C   0  0  0  0  0  0  0  0  0  0  0  0
  104.0340  101.0810  108.9680 N   0  0  0  0  0  0  0  0  0  0  0  0
  102.6700  102.8180  109.0680 N   0  0  0  0  0  0  0  0  0  0  0  0
  103.0060  100.8670  108.0790 N   0  0  0  0  0  0  0  0  0  0  0  0
  102.1770  101.8840  108.1800 C   0  0  0  0  0  0  0  0  0  0  0  0
  100.5220  101.9530  107.2230 Br  0  0  0  0  0  0  0  0  0  0  0  0
  102.1530  104.1130  109.3130 C   0  0  0  0  0  0  0  0  0  0  0  0
  101.1750  104.2370  110.2980 C   0  0  0  0  0  0  0  0  0  0  0  0
  102.5750  105.2340  108.5460 C   0  0  0  0  0  0  0  0  0  0  0  0
  100.5820  105.4730  110.5270 C   0  0  0  0  0  0  0  0  0  0  0  0
  103.6200  105.1860  107.5840 C   0  0  0  0  0  0  0  0  0  0  0  0
  101.9410  106.4880  108.7830 C   0  0  0  0  0  0  0  0  0  0  0  0
  100.9450  106.6180  109.7980 C   0  0  0  0  0  0  0  0  0  0  0  0
  103.9910  106.3010  106.8340 C   0  0  0  0  0  0  0  0  0  0  0  0
  102.3320  107.5930  107.9930 C   0  0  0  0  0  0  0  0  0  0  0  0
  103.3370  107.5040  107.0300 C   0  0  0  0  0  0  0  0  0  0  0  0
  100.2430  107.9350  110.1010 C   0  0  0  0  0  0  0  0  0  0  0  0
  101.0180  109.2350  110.0400 C   0  0  0  0  0  0  0  0  0  0  0  0
  100.5600  108.7090  111.3640 C   0  0  0  0  0  0  0  0  0  0  0  0
  1  2  1  0  0  0  0
  2  3  1  0  0  0  0
  3  5  1  0  0  0  0
  4  3  2  0  0  0  0
  6  1  1  0  0  0  0
  7  6  2  0  0  0  0
  8 12  1  0  0  0  0
  8  6  1  0  0  0  0
  9 10  2  0  0  0  0
  9  7  1  0  0  0  0
 10  8  1  0  0  0  0
 11 10  1  0  0  0  0
 12 13  1  0  0  0  0
 13 15  2  0  0  0  0
 14 17  1  0  0  0  0
 14 12  2  0  0  0  0
 16 14  1  0  0  0  0
 17 18  2  0  0  0  0
 18 22  1  0  0  0  0
 18 15  1  0  0  0  0
 19 21  1  0  0  0  0
 19 16  2  0  0  0  0
 20 17  1  0  0  0  0
 21 20  2  0  0  0  0
 22 24  1  0  0  0  0
 23 22  1  0  0  0  0
 23 24  1  0  0  0  0
M  END
>  <minimizedAffinity>
-7.88278437

>  <CNNscore>
0.737656832

>  <CNNaffinity>
6.63377619

$$$$

 OpenBabel09082614273D

 24 27  0  0  0  0  0  0  0  0999 V2000
  103.7900  101.5060  110.5330 S   0  0  0  0  0  0  0  0  0  0  0  0
  104.7900  100.0710  111.0500 C   0  0  0  0  0  0  0  0  0  0  0  0
  106.2100  100.3440  110.5460 C   0  0  0  0  0  0  0  0  0  0  0  0
  106.6780  101.4860  110.8220 O   0  0  0  0  0  0  0  0  0  0  0  0
  106.7580   99.4000  109.9030 O   0  0  0  0  0  0  0  0  0  0  0  0
  103.3720  101.0110  108.9240 C   0  0  0  0  0  0  0  0  0  0  0  0
  103.6400   99.8270  108.4110 N   0  0  0  0  0  0  0  0  0  0  0  0
  102.8710  101.8480  107.9490 N   0  0  0  0  0  0  0  0  0  0  0  0
  103.2330   99.8380  107.0970 N   0  0  0  0  0  0  0  0  0  0  0  0
  102.7350  101.0300  106.8460 C   0  0  0  0  0  0  0  0  0  0  0  0
  101.9190  101.4660  105.1720 Br  0  0  0  0  0  0  0  0  0  0  0  0
  102.6120  103.2390  108.0120 C   0  0  0  0  0  0  0  0  0  0  0  0
  103.7100  104.0970  107.9940 C   0  0  0  0  0  0  0  0  0  0  0  0
  101.2870  103.7380  108.1430 C   0  0  0  0  0  0  0  0  0  0  0  0
  103.5160  105.4660  108.1270 C   0  0  0  0  0  0  0  0  0  0  0  0
  100.1250  102.9220  108.0900 C   0  0  0  0  0  0  0  0  0  0  0  0
  101.1110  105.1440  108.2970 C   0  0  0  0  0  0  0  0  0  0  0  0
  102.2350  106.0250  108.2710 C   0  0  0  0  0  0  0  0  0  0  0  0
   98.8420  103.4450  108.2470 C   0  0  0  0  0  0  0  0  0  0  0  0
   99.7970  105.6370  108.4690 C   0  0  0  0  0  0  0  0  0  0  0  0
   98.6790  104.8040  108.4490 C   0  0  0  0  0  0  0  0  0  0  0  0
  102.1040  107.5350  108.4200 C   0  0  0  0  0  0  0  0  0  0  0  0
  101.3770  108.3370  107.3610 C   0  0  0  0  0  0  0  0  0  0  0  0
  102.8600  108.4720  107.5010 C   0  0  0  0  0  0  0  0  0  0  0  0
  1  2  1  0  0  0  0
  3  4  1  0  0  0  0
  3  2  1  0  0  0  0
  5  3  2  0  0  0  0
  6  1  1  0  0  0  0
  7  6  2  0  0  0  0
  8 12  1  0  0  0  0
  8  6  1  0  0  0  0
  9  7  1  0  0  0  0
 10  9  2  0  0  0  0
 10  8  1  0  0  0  0
 11 10  1  0  0  0  0
 12 14  1  0  0  0  0
 13 12  2  0  0  0  0
 13 15  1  0  0  0  0
 14 17  1  0  0  0  0
 15 18  2  0  0  0  0
 16 14  2  0  0  0  0
 16 19  1  0  0  0  0
 17 20  2  0  0  0  0
 18 17  1  0  0  0  0
 18 22  1  0  0  0  0
 19 21  2  0  0  0  0
 21 20  1  0  0  0  0
 23 24  1  0  0  0  0
 23 22  1  0  0  0  0
 24 22  1  0  0  0  0
M  END
>  <minimizedAffinity>
-7.36457682

>  <CNNscore>
0.6474666

>  <CNNaffinity>
6.38476753

$$$$

 OpenBabel09082614273D

 24 27  0  0  0  0  0  0  0  0999 V2000
  101.9510  102.3310  106.4070 S   0  0  0  0  0  0  0  0  0  0  0  0
  101.8570  100.6820  105.6330 C   0  0  0  0  0  0  0  0  0  0  0  0
  101.9460  100.9200  104.1230 C   0  0  0  0  0  0  0  0  0  0  0  0
  101.4430  100.0160  103.3960 O   0  0  0  0  0  0  0  0  0  0  0  0
  102.5180  101.9930  103.7670 O   0  0  0  0  0  0  0  0  0  0  0  0
  102.9940  101.9730  107.7440 C   0  0  0  0  0  0  0  0  0  0  0  0
  103.6360  100.8330  107.9090 N   0  0  0  0  0  0  0  0  0  0  0  0
  103.1350  102.7630  108.8660 N   0  0  0  0  0  0  0  0  0  0  0  0
  104.2900  100.8920  109.1180 N   0  0  0  0  0  0  0  0  0  0  0  0
  104.0220  102.0620  109.6570 C   0  0  0  0  0  0  0  0  0  0  0  0
  104.8280  102.6440  111.2920 Br  0  0  0  0  0  0  0  0  0  0  0  0
  102.4830  103.9770  109.1910 C   0  0  0  0  0  0  0  0  0  0  0  0
  101.4900  103.9300  110.1670 C   0  0  0  0  0  0  0  0  0  0  0  0
  102.7930  105.1860  108.5100 C   0  0  0  0  0  0  0  0  0  0  0  0
  100.7690  105.0780  110.4710 C   0  0  0  0  0  0  0  0  0  0  0  0
  103.8450  105.3140  107.5630 C   0  0  0  0  0  0  0  0  0  0  0  0
  102.0300  106.3480  108.8230 C   0  0  0  0  0  0  0  0  0  0  0  0
  101.0160  106.3030  109.8280 C   0  0  0  0  0  0  0  0  0  0  0  0
  104.1040  106.5110  106.8980 C   0  0  0  0  0  0  0  0  0  0  0  0
  102.3100  107.5400  108.1170 C   0  0  0  0  0  0  0  0  0  0  0  0
  103.3270  107.6240  107.1660 C   0  0  0  0  0  0  0  0  0  0  0  0
  100.1780  107.5160  110.2110 C   0  0  0  0  0  0  0  0  0  0  0  0
  100.8230  108.8840  110.2880 C   0  0  0  0  0  0  0  0  0  0  0  0
  100.3770  108.2050  111.5450 C   0  0  0  0  0  0  0  0  0  0  0  0
  1  6  1  0  0  0  0
  2  1  1  0  0  0  0
  3  2  1  0  0  0  0
  4  3  2  0  0  0  0
  5  3  1  0  0  0  0
  6  7  2  0  0  0  0
  6  8  1  0  0  0  0
  7  9  1  0  0  0  0
  8 12  1  0  0  0  0
  8 10  1  0  0  0  0
  9 10  2  0  0  0  0
 10 11  1  0  0  0  0
 12 13  1  0  0  0  0
 13 15  2  0  0  0  0
 14 17  1  0  0  0  0
 14 12  2  0  0  0  0
 16 14  1  0  0  0  0
 17 18  2  0  0  0  0
 18 22  1  0  0  0  0
 18 15  1  0  0  0  0
 19 21  1  0  0  0  0
 19 16  2  0  0  0  0
 20 17  1  0  0  0  0
 21 20  2  0  0  0  0
 22 23  1  0  0  0  0
 22 24  1  0  0  0  0
 23 24  1  0  0  0  0
M  END
>  <minimizedAffinity>
-7.77094316

>  <CNNscore>
0.637449443

>  <CNNaffinity>
6.5325551

$$$$

 OpenBabel09082614273D

 24 27  0  0  0  0  0  0  0  0999 V2000
   98.6520  104.2580  107.6370 S   0  0  0  0  0  0  0  0  0  0  0  0
   98.3300  105.8010  106.7190 C   0  0  0  0  0  0  0  0  0  0  0  0
   97.6550  105.3780  105.4110 C   0  0  0  0  0  0  0  0  0  0  0  0
   98.1140  104.3300  104.8720 O   0  0  0  0  0  0  0  0  0  0  0  0
   96.7150  106.1260  105.0090 O   0  0  0  0  0  0  0  0  0  0  0  0
   98.8950  104.9040  109.2280 C   0  0  0  0  0  0  0  0  0  0  0  0
   97.9960  104.8780  110.1920 N   0  0  0  0  0  0  0  0  0  0  0  0
   99.9780  105.6670  109.6090 N   0  0  0  0  0  0  0  0  0  0  0  0
   98.5180  105.5560  111.2690 N   0  0  0  0  0  0  0  0  0  0  0  0
   99.7160  105.9810  110.9270 C   0  0  0  0  0  0  0  0  0  0  0  0
  100.8780  106.8660  112.1630 Br  0  0  0  0  0  0  0  0  0  0  0  0
  101.0820  106.1020  108.8360 C   0  0  0  0  0  0  0  0  0  0  0  0
  101.8810  105.1210  108.2520 C   0  0  0  0  0  0  0  0  0  0  0  0
  101.3930  107.4830  108.7050 C   0  0  0  0  0  0  0  0  0  0  0  0
  103.0170  105.4910  107.5440 C   0  0  0  0  0  0  0  0  0  0  0  0
  100.5760  108.5300  109.2110 C   0  0  0  0  0  0  0  0  0  0  0  0
  102.5730  107.8410  107.9920 C   0  0  0  0  0  0  0  0  0  0  0  0
  103.3890  106.8380  107.3860 C   0  0  0  0  0  0  0  0  0  0  0  0
  100.9260  109.8730  109.0840 C   0  0  0  0  0  0  0  0  0  0  0  0
  102.9050  109.2120  107.8970 C   0  0  0  0  0  0  0  0  0  0  0  0
  102.1000  110.2140  108.4360 C   0  0  0  0  0  0  0  0  0  0  0  0
  104.6540  107.1640  106.6030 C   0  0  0  0  0  0  0  0  0  0  0  0
  104.6150  108.2060  105.5060 C   0  0  0  0  0  0  0  0  0  0  0  0
  104.7900  106.7640  105.1490 C   0  0  0  0  0  0  0  0  0  0  0  0
  1  6  1  0  0  0  0
  2  1  1  0  0  0  0
  3  2  1  0  0  0  0
  4  3  2  0  0  0  0
  5  3  1  0  0  0  0
  6  8  1  0  0  0  0
  6  7  2  0  0  0  0
  7  9  1  0  0  0  0
  8 10  1  0  0  0  0
 10  9  2  0  0  0  0
 10 11  1  0  0  0  0
 12  8  1  0  0  0  0
 13 12  2  0  0  0  0
 14 12  1  0  0  0  0
 14 16  1  0  0  0  0
 15 13  1  0  0  0  0
 17 14  2  0  0  0  0
 18 15  2  0  0  0  0
 18 17  1  0  0  0  0
 19 16  2  0  0  0  0
 20 17  1  0  0  0  0
 20 21  2  0  0  0  0
 21 19  1  0  0  0  0
 22 18  1  0  0  0  0
 23 22  1  0  0  0  0
 24 23  1  0  0  0  0
 24 22  1  0  0  0  0
M  END
>  <minimizedAffinity>
-7.06033897

>  <CNNscore>
0.59991473

>  <CNNaffinity>
6.32465601

$$$$

 OpenBabel09082614273D

 24 27  0  0  0  0  0  0  0  0999 V2000
  100.4680  102.9520  106.6080 S   0  0  0  0  0  0  0  0  0  0  0  0
   99.0030  103.0650  107.6900 C   0  0  0  0  0  0  0  0  0  0  0  0
   98.2630  104.3360  107.2630 C   0  0  0  0  0  0  0  0  0  0  0  0
   98.3020  104.6030  106.0270 O   0  0  0  0  0  0  0  0  0  0  0  0
   97.6970  104.9830  108.1920 O   0  0  0  0  0  0  0  0  0  0  0  0
  101.7060  102.7530  107.8060 C   0  0  0  0  0  0  0  0  0  0  0  0
  102.1440  101.5890  108.2450 N   0  0  0  0  0  0  0  0  0  0  0  0
  102.2470  103.7760  108.5560 N   0  0  0  0  0  0  0  0  0  0  0  0
  103.0590  101.8350  109.2420 N   0  0  0  0  0  0  0  0  0  0  0  0
  103.1460  103.1400  109.3880 C   0  0  0  0  0  0  0  0  0  0  0  0
  104.4010  103.9550  110.5800 Br  0  0  0  0  0  0  0  0  0  0  0  0
  101.9260  105.1550  108.5480 C   0  0  0  0  0  0  0  0  0  0  0  0
  102.5690  105.9570  107.6080 C   0  0  0  0  0  0  0  0  0  0  0  0
  101.0230  105.7090  109.4980 C   0  0  0  0  0  0  0  0  0  0  0  0
  102.3450  107.3280  107.6050 C   0  0  0  0  0  0  0  0  0  0  0  0
  100.2800  104.9330  110.4290 C   0  0  0  0  0  0  0  0  0  0  0  0
  100.8220  107.1190  109.4910 C   0  0  0  0  0  0  0  0  0  0  0  0
  101.4750  107.9420  108.5230 C   0  0  0  0  0  0  0  0  0  0  0  0
   99.4220  105.5140  111.3610 C   0  0  0  0  0  0  0  0  0  0  0  0
   99.9570  107.6750  110.4610 C   0  0  0  0  0  0  0  0  0  0  0  0
   99.2690  106.8890  111.3860 C   0  0  0  0  0  0  0  0  0  0  0  0
  101.2880  109.4520  108.4620 C   0  0  0  0  0  0  0  0  0  0  0  0
  102.4940  110.3550  108.3110 C   0  0  0  0  0  0  0  0  0  0  0  0
  101.7430  110.3350  109.6050 C   0  0  0  0  0  0  0  0  0  0  0  0
  1  2  1  0  0  0  0
  1  6  1  0  0  0  0
  3  2  1  0  0  0  0
  3  5  1  0  0  0  0
  4  3  2  0  0  0  0
  6  7  2  0  0  0  0
  6  8  1  0  0  0  0
  7  9  1  0  0  0  0
  8 10  1  0  0  0  0
  9 10  2  0  0  0  0
 10 11  1  0  0  0  0
 12  8  1  0  0  0  0
 12 14  1  0  0  0  0
 13 12  2  0  0  0  0
 14 16  1  0  0  0  0
 15 13  1  0  0  0  0
 15 18  2  0  0  0  0
 16 19  2  0  0  0  0
 17 14  2  0  0  0  0
 17 20  1  0  0  0  0
 18 17  1  0  0  0  0
 19 21  1  0  0  0  0
 20 21  2  0  0  0  0
 22 18  1  0  0  0  0
 22 24  1  0  0  0  0
 23 22  1  0  0  0  0
 23 24  1  0  0  0  0
M  END
>  <minimizedAffinity>
-7.49348021

>  <CNNscore>
0.588858724

>  <CNNaffinity>
6.17918444

$$$$

 OpenBabel09082614273D

 24 27  0  0  0  0  0  0  0  0999 V2000
  105.2600  102.1130  110.1540 S   0  0  0  0  0  0  0  0  0  0  0  0
  106.5920  100.9660  110.6450 C   0  0  0  0  0  0  0  0  0  0  0  0
  106.1910  100.4210  112.0180 C   0  0  0  0  0  0  0  0  0  0  0  0
  107.0050  100.6560  112.9590 O   0  0  0  0  0  0  0  0  0  0  0  0
  105.0930   99.7920  112.0630 O   0  0  0  0  0  0  0  0  0  0  0  0
  104.2710  101.0360  109.2220 C   0  0  0  0  0  0  0  0  0  0  0  0
  104.7060   99.9420  108.6300 N   0  0  0  0  0  0  0  0  0  0  0  0
  102.9670  101.2900  108.8500 N   0  0  0  0  0  0  0  0  0  0  0  0
  103.6570   99.4020  107.9230 N   0  0  0  0  0  0  0  0  0  0  0  0
  102.6150  100.1880  108.0980 C   0  0  0  0  0  0  0  0  0  0  0  0
  100.8840   99.7600  107.4050 Br  0  0  0  0  0  0  0  0  0  0  0  0
  102.1720  102.4330  109.1050 C   0  0  0  0  0  0  0  0  0  0  0  0
  102.2850  103.0260  110.3610 C   0  0  0  0  0  0  0  0  0  0  0  0
  101.2540  102.9250  108.1360 C   0  0  0  0  0  0  0  0  0  0  0  0
  101.4740  104.1050  110.6880 C   0  0  0  0  0  0  0  0  0  0  0  0
  101.1490  102.4130  106.8150 C   0  0  0  0  0  0  0  0  0  0  0  0
  100.4180  104.0210  108.4980 C   0  0  0  0  0  0  0  0  0  0  0  0
  100.5380  104.6340  109.7820 C   0  0  0  0  0  0  0  0  0  0  0  0
  100.2200  102.9060  105.8990 C   0  0  0  0  0  0  0  0  0  0  0  0
   99.4780  104.4840  107.5500 C   0  0  0  0  0  0  0  0  0  0  0  0
   99.3740  103.9350  106.2720 C   0  0  0  0  0  0  0  0  0  0  0  0
   99.6790  105.8130  110.2180 C   0  0  0  0  0  0  0  0  0  0  0  0
   99.6310  106.2120  111.6780 C   0  0  0  0  0  0  0  0  0  0  0  0
   98.4260  105.5970  111.0400 C   0  0  0  0  0  0  0  0  0  0  0  0
  1  2  1  0  0  0  0
  2  3  1  0  0  0  0
  3  5  2  0  0  0  0
  3  4  1  0  0  0  0
  6  1  1  0  0  0  0
  7  6  2  0  0  0  0
  8 12  1  0  0  0  0
  8  6  1  0  0  0  0
  9 10  2  0  0  0  0
  9  7  1  0  0  0  0
 10  8  1  0  0  0  0
 11 10  1  0  0  0  0
 12 13  1  0  0  0  0
 13 15  2  0  0  0  0
 14 17  1  0  0  0  0
 14 12  2  0  0  0  0
 16 14  1  0  0  0  0
 17 18  2  0  0  0  0
 18 22  1  0  0  0  0
 18 15  1  0  0  0  0
 19 21  1  0  0  0  0
 19 16  2  0  0  0  0
 20 17  1  0  0  0  0
 21 20  2  0  0  0  0
 22 24  1  0  0  0  0
 22 23  1  0  0  0  0
 24 23  1  0  0  0  0
M  END
>  <minimizedAffinity>
-7.29026365

>  <CNNscore>
0.586959839

>  <CNNaffinity>
6.34249544

$$$$

 OpenBabel09082614273D

 24 27  0  0  0  0  0  0  0  0999 V2000
  102.1170  102.4030  105.8710 S   0  0  0  0  0  0  0  0  0  0  0  0
  102.4280  100.7540  105.1540 C   0  0  0  0  0  0  0  0  0  0  0  0
  102.1810  100.8970  103.6490 C   0  0  0  0  0  0  0  0  0  0  0  0
  101.3740  100.0630  103.1450 O   0  0  0  0  0  0  0  0  0  0  0  0
  102.8130  101.8310  103.0730 O   0  0  0  0  0  0  0  0  0  0  0  0
  102.9930  102.2480  107.3600 C   0  0  0  0  0  0  0  0  0  0  0  0
  103.3780  101.1030  107.8870 N   0  0  0  0  0  0  0  0  0  0  0  0
  103.2320  103.2810  108.2420 N   0  0  0  0  0  0  0  0  0  0  0  0
  103.9650  101.3770  109.1000 N   0  0  0  0  0  0  0  0  0  0  0  0
  103.9140  102.6800  109.2800 C   0  0  0  0  0  0  0  0  0  0  0  0
  104.7350  103.5380  110.7800 Br  0  0  0  0  0  0  0  0  0  0  0  0
  102.8270  104.6350  108.1630 C   0  0  0  0  0  0  0  0  0  0  0  0
  103.5480  105.4720  107.3130 C   0  0  0  0  0  0  0  0  0  0  0  0
  101.7600  105.1340  108.9600 C   0  0  0  0  0  0  0  0  0  0  0  0
  103.2380  106.8240  107.2540 C   0  0  0  0  0  0  0  0  0  0  0  0
  100.9400  104.3170  109.7850 C   0  0  0  0  0  0  0  0  0  0  0  0
  101.4700  106.5280  108.8990 C   0  0  0  0  0  0  0  0  0  0  0  0
  102.2030  107.3850  108.0230 C   0  0  0  0  0  0  0  0  0  0  0  0
   99.9170  104.8460  110.5720 C   0  0  0  0  0  0  0  0  0  0  0  0
  100.4370  107.0310  109.7220 C   0  0  0  0  0  0  0  0  0  0  0  0
   99.6740  106.2070  110.5500 C   0  0  0  0  0  0  0  0  0  0  0  0
  101.9290  108.8790  107.9100 C   0  0  0  0  0  0  0  0  0  0  0  0
  103.0690  109.8670  108.0450 C   0  0  0  0  0  0  0  0  0  0  0  0
  102.0350  109.7800  109.1220 C   0  0  0  0  0  0  0  0  0  0  0  0
  1  6  1  0  0  0  0
  2  1  1  0  0  0  0
  3  2  1  0  0  0  0
  4  3  1  0  0  0  0
  5  3  2  0  0  0  0
  6  7  2  0  0  0  0
  6  8  1  0  0  0  0
  7  9  1  0  0  0  0
  8 10  1  0  0  0  0
  9 10  2  0  0  0  0
 10 11  1  0  0  0  0
 12  8  1  0  0  0  0
 12 14  1  0  0  0  0
 13 12  2  0  0  0  0
 14 16  1  0  0  0  0
 15 13  1  0  0  0  0
 15 18  2  0  0  0  0
 16 19  2  0  0  0  0
 17 14  2  0  0  0  0
 17 20  1  0  0  0  0
 18 17  1  0  0  0  0
 20 21  2  0  0  0  0
 21 19  1  0  0  0  0
 22 18  1  0  0  0  0
 22 23  1  0  0  0  0
 22 24  1  0  0  0  0
 23 24  1  0  0  0  0
M  END
>  <minimizedAffinity>
-8.00529671

>  <CNNscore>
0.582899511

>  <CNNaffinity>
6.2777977

$$$$
