GCIKSSRWRFVXBI-UHFFFAOYSA-N
     RDKit          3D

 33 37  0  0  0  0  0  0  0  0999 V2000
   10.0840  -21.8310   24.0330 C   0  0  0  0  0  0  0  0  0  0  0  0
    9.6940  -21.5860   22.6270 C   0  0  0  0  0  0  0  0  0  0  0  0
    8.6240  -20.9220   22.0720 C   0  0  0  0  0  0  0  0  0  0  0  0
    8.7890  -21.0280   20.6680 C   0  0  0  0  0  0  0  0  0  0  0  0
    7.8670  -20.5200   19.8280 N   0  0  0  0  0  0  0  0  0  0  0  0
    6.4710  -20.4820   19.8680 C   0  0  0  0  0  0  0  0  0  0  0  0
    5.7240  -19.3290   19.7320 C   0  0  0  0  0  0  0  0  0  0  0  0
    4.3440  -19.4220   19.7510 C   0  0  0  0  0  0  0  0  0  0  0  0
    3.5150  -18.3090   19.6140 N   0  0  0  0  0  0  0  0  0  0  0  0
    3.5730  -17.4880   18.3920 C   0  0  0  0  0  0  0  0  0  0  0  0
    2.7740  -16.1730   18.5340 C   0  0  0  0  0  0  0  0  0  0  0  0
    1.4020  -16.3020   19.0620 N   0  0  0  0  0  0  0  0  0  0  0  0
    0.5150  -16.9650   18.1090 C   0  0  0  0  0  0  0  0  0  0  0  0
    1.4740  -17.0370   20.3410 C   0  0  0  0  0  0  0  0  0  0  0  0
    2.2100  -18.3970   20.2980 C   0  0  0  0  0  0  0  0  0  0  0  0
    3.7630  -20.6190   19.9200 N   0  0  0  0  0  0  0  0  0  0  0  0
    4.5550  -21.6890   20.0640 C   0  0  0  0  0  0  0  0  0  0  0  0
    3.7600  -23.2640   20.2670 S   0  0  0  0  0  0  0  0  0  0  0  0
    4.8230  -23.9790   21.5020 C   0  0  0  0  0  0  0  0  0  0  0  0
    5.0390  -25.3570   21.5530 C   0  0  0  0  0  0  0  0  0  0  0  0
    5.8970  -25.9100   22.5100 C   0  0  0  0  0  0  0  0  0  0  0  0
    6.5540  -25.0880   23.4290 C   0  0  0  0  0  0  0  0  0  0  0  0
    7.4390  -25.5620   24.4160 N   0  0  0  0  0  0  0  0  0  0  0  0
    8.8130  -25.6210   24.3510 C   0  0  0  0  0  0  0  0  0  0  0  0
    9.5430  -25.2990   23.4260 O   0  0  0  0  0  0  0  0  0  0  0  0
    9.4190  -26.1750   25.5930 C   0  0  0  0  0  0  0  0  0  0  0  0
    9.6040  -27.6700   25.7250 C   0  0  0  0  0  0  0  0  0  0  0  0
   10.8030  -26.7810   25.5780 C   0  0  0  0  0  0  0  0  0  0  0  0
    6.3360  -23.7070   23.3770 C   0  0  0  0  0  0  0  0  0  0  0  0
    5.4810  -23.1550   22.4170 C   0  0  0  0  0  0  0  0  0  0  0  0
    5.8910  -21.6750   20.0430 N   0  0  0  0  0  0  0  0  0  0  0  0
    9.9070  -21.6900   20.3720 N   0  0  0  0  0  0  0  0  0  0  0  0
   10.4360  -22.0200   21.5630 N   0  0  0  0  0  0  0  0  0  0  0  0
  1  2  1  0
  2  3  2  0
  3  4  1  0
  4  5  1  0
  5  6  1  0
  6  7  2  0
  7  8  1  0
  8  9  1  0
  9 10  1  0
 10 11  1  0
 11 12  1  0
 12 13  1  0
 12 14  1  0
 14 15  1  0
  8 16  2  0
 16 17  1  0
 17 18  1  0
 18 19  1  0
 19 20  2  0
 20 21  1  0
 21 22  2  0
 22 23  1  0
 23 24  1  0
 24 25  2  0
 24 26  1  0
 26 27  1  0
 27 28  1  0
 22 29  1  0
 29 30  2  0
 17 31  2  0
  4 32  2  0
 32 33  1  0
 33  2  1  0
 31  6  1  0
 15  9  1  0
 30 19  1  0
 28 26  1  0
M  END
$$$$
