KHOPHRHAXOWMRK-UHFFFAOYSA-N
     RDKit          3D

 41 46  0  0  0  0  0  0  0  0999 V2000
   12.9490    6.4400   18.2710 C   0  0  0  0  0  0  0  0  0  0  0  0
   14.0960    6.8400   19.0100 O   0  0  0  0  0  0  0  0  0  0  0  0
   14.2130    6.3720   20.2890 C   0  0  0  0  0  0  0  0  0  0  0  0
   13.1990    6.3060   21.2340 C   0  0  0  0  0  0  0  0  0  0  0  0
   13.4710    5.8090   22.5150 C   0  0  0  0  0  0  0  0  0  0  0  0
   12.4710    5.6830   23.4530 O   0  0  0  0  0  0  0  0  0  0  0  0
   11.6960    6.8690   23.7360 C   0  0  1  0  0  0  0  0  0  0  0  0
   10.2810    6.6740   23.1840 C   0  0  0  0  0  0  0  0  0  0  0  0
    9.3840    7.8600   23.5390 C   0  0  0  0  0  0  0  0  0  0  0  0
    9.3050    8.0450   24.9910 N   0  0  0  0  0  0  0  0  0  0  0  0
    8.4350    9.1690   25.3330 C   0  0  0  0  0  0  0  0  0  0  0  0
   10.6410    8.2110   25.6010 C   0  0  0  0  0  0  0  0  0  0  0  0
   11.6250    7.0840   25.2530 C   0  0  0  0  0  0  0  0  0  0  0  0
   12.8570    7.4020   25.7290 F   0  0  0  0  0  0  0  0  0  0  0  0
   11.2510    5.9340   25.8740 F   0  0  0  0  0  0  0  0  0  0  0  0
   14.7740    5.3230   22.8580 C   0  0  0  0  0  0  0  0  0  0  0  0
   15.1940    4.7650   24.0960 C   0  0  0  0  0  0  0  0  0  0  0  0
   14.2810    4.6790   25.1690 N   0  0  0  0  0  0  0  0  0  0  0  0
   14.1550    3.7860   26.2470 C   0  0  0  0  0  0  0  0  0  0  0  0
   13.2400    4.0900   27.2660 C   0  0  0  0  0  0  0  0  0  0  0  0
   13.0690    3.2460   28.3660 C   0  0  0  0  0  0  0  0  0  0  0  0
   13.7990    2.0610   28.4510 C   0  0  0  0  0  0  0  0  0  0  0  0
   13.6710    1.2280   29.5400 O   0  0  0  0  0  0  0  0  0  0  0  0
   12.4650    1.2060   30.2220 C   0  0  0  0  0  0  0  0  0  0  0  0
   11.2720    0.8280   29.7060 C   0  0  0  0  0  0  0  0  0  0  0  0
   10.1130    0.8380   30.5320 C   0  0  0  0  0  0  0  0  0  0  0  0
    8.8550    0.5560   30.2820 N   0  0  0  0  0  0  0  0  0  0  0  0
    8.2530    0.7730   31.4860 C   0  0  0  0  0  0  0  0  0  0  0  0
    9.0530    1.1630   32.4790 N   0  0  0  0  0  0  0  0  0  0  0  0
   10.2630    1.2130   31.8730 N   0  0  0  0  0  0  0  0  0  0  0  0
   11.4910    1.5690   32.4160 C   0  0  0  0  0  0  0  0  0  0  0  0
   12.5760    1.5660   31.6300 C   0  0  0  0  0  0  0  0  0  0  0  0
   13.7800    1.9110   32.1290 F   0  0  0  0  0  0  0  0  0  0  0  0
   14.7340    1.7340   27.4630 C   0  0  0  0  0  0  0  0  0  0  0  0
   15.5820    0.5000   27.5730 C   0  0  0  0  0  0  0  0  0  0  0  0
   14.9000    2.6070   26.3730 C   0  0  0  0  0  0  0  0  0  0  0  0
   16.4570    4.3360   24.2910 N   0  0  0  0  0  0  0  0  0  0  0  0
   17.3100    4.4580   23.2770 C   0  0  0  0  0  0  0  0  0  0  0  0
   17.0310    4.9710   22.0790 N   0  0  0  0  0  0  0  0  0  0  0  0
   15.7800    5.3930   21.8820 C   0  0  0  0  0  0  0  0  0  0  0  0
   15.4860    5.9190   20.6320 C   0  0  0  0  0  0  0  0  0  0  0  0
  1  2  1  0
  2  3  1  0
  3  4  2  0
  4  5  1  0
  5  6  1  0
  7  6  1  1
  7  8  1  0
  8  9  1  0
  9 10  1  0
 10 11  1  0
 10 12  1  0
 12 13  1  0
 13 14  1  0
 13 15  1  0
  5 16  2  0
 16 17  1  0
 17 18  1  0
 18 19  1  0
 19 20  2  0
 20 21  1  0
 21 22  2  0
 22 23  1  0
 23 24  1  0
 24 25  2  0
 25 26  1  0
 26 27  2  0
 27 28  1  0
 28 29  2  0
 29 30  1  0
 30 31  1  0
 31 32  2  0
 32 33  1  0
 22 34  1  0
 34 35  1  0
 34 36  2  0
 17 37  2  0
 37 38  1  0
 38 39  2  0
 39 40  1  0
 40 41  2  0
 41  3  1  0
 13  7  1  0
 40 16  1  0
 36 19  1  0
 32 24  1  0
 30 26  1  0
M  END
$$$$
