KHOPHRHAXOWMRK-UHFFFAOYSA-N
     RDKit          3D

 41 46  0  0  0  0  0  0  0  0999 V2000
   16.1010    6.3530   20.4400 C   0  0  0  0  0  0  0  0  0  0  0  0
   16.9910    5.5220   21.1740 O   0  0  0  0  0  0  0  0  0  0  0  0
   16.4770    4.8440   22.2440 C   0  0  0  0  0  0  0  0  0  0  0  0
   15.1610    4.8820   22.6840 C   0  0  0  0  0  0  0  0  0  0  0  0
   14.7800    4.1370   23.8080 C   0  0  0  0  0  0  0  0  0  0  0  0
   13.4700    4.1160   24.2320 O   0  0  0  0  0  0  0  0  0  0  0  0
   12.7790    5.3840   24.2630 C   0  0  1  0  0  0  0  0  0  0  0  0
   11.2990    5.1440   23.9490 C   0  0  0  0  0  0  0  0  0  0  0  0
   10.4960    6.4390   24.0630 C   0  0  0  0  0  0  0  0  0  0  0  0
   10.6080    7.0130   25.4060 N   0  0  0  0  0  0  0  0  0  0  0  0
    9.8280    8.2440   25.5220 C   0  0  0  0  0  0  0  0  0  0  0  0
   12.0160    7.2470   25.7930 C   0  0  0  0  0  0  0  0  0  0  0  0
   12.9090    6.0040   25.6600 C   0  0  0  0  0  0  0  0  0  0  0  0
   14.2010    6.3530   25.8880 F   0  0  0  0  0  0  0  0  0  0  0  0
   12.5770    5.0910   26.6110 F   0  0  0  0  0  0  0  0  0  0  0  0
   15.7180    3.2980   24.4910 C   0  0  0  0  0  0  0  0  0  0  0  0
   15.4770    2.4650   25.6180 C   0  0  0  0  0  0  0  0  0  0  0  0
   14.1940    2.4390   26.2050 N   0  0  0  0  0  0  0  0  0  0  0  0
   13.7320    2.0420   27.4710 C   0  0  0  0  0  0  0  0  0  0  0  0
   12.7950    0.9990   27.5460 C   0  0  0  0  0  0  0  0  0  0  0  0
   12.2940    0.5580   28.7730 C   0  0  0  0  0  0  0  0  0  0  0  0
   12.7450    1.1420   29.9560 C   0  0  0  0  0  0  0  0  0  0  0  0
   12.2430    0.7460   31.1760 O   0  0  0  0  0  0  0  0  0  0  0  0
   10.9000    0.9620   31.4440 C   0  0  0  0  0  0  0  0  0  0  0  0
   10.3220    2.1660   31.6670 C   0  0  0  0  0  0  0  0  0  0  0  0
    8.9220    2.2400   31.9130 C   0  0  0  0  0  0  0  0  0  0  0  0
    8.1310    3.2530   32.1840 N   0  0  0  0  0  0  0  0  0  0  0  0
    6.9140    2.6560   32.3210 C   0  0  0  0  0  0  0  0  0  0  0  0
    6.8860    1.3340   32.1430 N   0  0  0  0  0  0  0  0  0  0  0  0
    8.1840    1.0510   31.8820 N   0  0  0  0  0  0  0  0  0  0  0  0
    8.7670   -0.1830   31.6200 C   0  0  0  0  0  0  0  0  0  0  0  0
   10.0870   -0.2460   31.3990 C   0  0  0  0  0  0  0  0  0  0  0  0
   10.6790   -1.4300   31.1460 F   0  0  0  0  0  0  0  0  0  0  0  0
   13.6630    2.1960   29.9200 C   0  0  0  0  0  0  0  0  0  0  0  0
   14.1050    2.8860   31.1780 C   0  0  0  0  0  0  0  0  0  0  0  0
   14.1420    2.6330   28.6720 C   0  0  0  0  0  0  0  0  0  0  0  0
   16.4510    1.7130   26.1680 N   0  0  0  0  0  0  0  0  0  0  0  0
   17.6610    1.7800   25.6190 C   0  0  0  0  0  0  0  0  0  0  0  0
   18.0040    2.5280   24.5700 N   0  0  0  0  0  0  0  0  0  0  0  0
   17.0400    3.2700   24.0210 C   0  0  0  0  0  0  0  0  0  0  0  0
   17.3930    4.0430   22.9230 C   0  0  0  0  0  0  0  0  0  0  0  0
  1  2  1  0
  2  3  1  0
  3  4  2  0
  4  5  1  0
  5  6  1  0
  7  6  1  1
  7  8  1  0
  8  9  1  0
  9 10  1  0
 10 11  1  0
 10 12  1  0
 12 13  1  0
 13 14  1  0
 13 15  1  0
  5 16  2  0
 16 17  1  0
 17 18  1  0
 18 19  1  0
 19 20  2  0
 20 21  1  0
 21 22  2  0
 22 23  1  0
 23 24  1  0
 24 25  2  0
 25 26  1  0
 26 27  2  0
 27 28  1  0
 28 29  2  0
 29 30  1  0
 30 31  1  0
 31 32  2  0
 32 33  1  0
 22 34  1  0
 34 35  1  0
 34 36  2  0
 17 37  2  0
 37 38  1  0
 38 39  2  0
 39 40  1  0
 40 41  2  0
 41  3  1  0
 13  7  1  0
 40 16  1  0
 36 19  1  0
 32 24  1  0
 30 26  1  0
M  END
$$$$
