ADEBPBSSDYVVLD-UHFFFAOYSA-N
     RDKit          3D

 28 31  0  0  0  0  0  0  0  0999 V2000
  133.7890  119.3050   40.6680 C   0  0  0  0  0  0  0  0  0  0  0  0
  133.0600  118.2670   41.3060 O   0  0  0  0  0  0  0  0  0  0  0  0
  133.2530  116.9810   40.8600 C   0  0  0  0  0  0  0  0  0  0  0  0
  133.9570  116.6520   39.6900 C   0  0  0  0  0  0  0  0  0  0  0  0
  134.0850  115.3160   39.3410 C   0  0  0  0  0  0  0  0  0  0  0  0
  133.5260  114.3380   40.1450 C   0  0  0  0  0  0  0  0  0  0  0  0
  132.8290  114.6160   41.3060 C   0  0  0  0  0  0  0  0  0  0  0  0
  132.6880  115.9570   41.6720 C   0  0  0  0  0  0  0  0  0  0  0  0
  132.0220  116.3840   42.7950 O   0  0  0  0  0  0  0  0  0  0  0  0
  131.3890  115.3970   43.5990 C   0  0  0  0  0  0  0  0  0  0  0  0
  133.8030  113.0380   39.5500 C   0  0  0  0  0  0  0  0  0  0  0  0
  133.4700  111.9820   40.0580 O   0  0  0  0  0  0  0  0  0  0  0  0
  134.5230  113.2250   38.2210 C   0  0  2  0  0  0  0  0  0  0  0  0
  135.7730  112.3390   38.1540 C   0  0  0  0  0  0  0  0  0  0  0  0
  137.0470  112.8620   38.8470 C   0  0  0  0  0  0  0  0  0  0  0  0
  137.3080  112.1950   40.2040 C   0  0  0  0  0  0  0  0  0  0  0  0
  138.5530  112.7790   40.8780 C   0  0  0  0  0  0  0  0  0  0  0  0
  139.7360  112.6570   40.0090 N   0  0  0  0  0  0  0  0  0  0  0  0
  140.9450  113.1860   40.6710 C   0  0  0  0  0  0  0  0  0  0  0  0
  140.7380  114.5400   41.3160 C   0  0  0  0  0  0  0  0  0  0  0  0
  141.6630  115.0350   42.2490 C   0  0  0  0  0  0  0  0  0  0  0  0
  141.4830  116.2910   42.8300 C   0  0  0  0  0  0  0  0  0  0  0  0
  140.3780  117.0670   42.4850 C   0  0  0  0  0  0  0  0  0  0  0  0
  139.4550  116.5890   41.5570 C   0  0  0  0  0  0  0  0  0  0  0  0
  139.6340  115.3340   40.9730 C   0  0  0  0  0  0  0  0  0  0  0  0
  139.5200  113.3540   38.7320 C   0  0  0  0  0  0  0  0  0  0  0  0
  138.3130  112.7750   37.9880 C   0  0  0  0  0  0  0  0  0  0  0  0
  134.8110  114.7450   38.1640 C   0  0  0  0  0  0  0  0  0  0  0  0
  1  2  1  0
  2  3  1  0
  3  4  2  0
  4  5  1  0
  5  6  2  0
  6  7  1  0
  7  8  2  0
  8  9  1  0
  9 10  1  0
  6 11  1  0
 11 12  2  0
 11 13  1  0
 13 14  1  1
 14 15  1  0
 15 16  1  0
 16 17  1  0
 17 18  1  0
 18 19  1  0
 19 20  1  0
 20 21  2  0
 21 22  1  0
 22 23  2  0
 23 24  1  0
 24 25  2  0
 18 26  1  0
 26 27  1  0
 13 28  1  0
  8  3  1  0
 27 15  1  0
 28  5  1  0
 25 20  1  0
M  END
$$$$
