UNTPIVQPYGUHPI-MZADTFQBSA-N
     RDKit          3D

 39 44  0  0  0  0  0  0  0  0999 V2000
    1.4090   31.7280  -23.5950 C   0  0  0  0  0  0  0  0  0  0  0  0
    1.2010   30.2890  -23.8570 C   0  0  0  0  0  0  0  0  0  0  0  0
    0.8130   29.5960  -24.9820 C   0  0  0  0  0  0  0  0  0  0  0  0
    0.7790   28.2290  -24.6030 C   0  0  0  0  0  0  0  0  0  0  0  0
    0.4090   27.2700  -25.4740 N   0  0  0  0  0  0  0  0  0  0  0  0
    0.1110   25.9160  -25.3220 C   0  0  0  0  0  0  0  0  0  0  0  0
    0.9410   24.9990  -24.7050 C   0  0  0  0  0  0  0  0  0  0  0  0
    0.5650   23.6760  -24.5980 C   0  0  0  0  0  0  0  0  0  0  0  0
    1.4130   22.8130  -24.0010 N   0  0  0  0  0  0  0  0  0  0  0  0
    1.0640   21.5060  -23.9000 C   0  0  0  0  0  0  0  0  0  0  0  0
    2.0330   20.5770  -23.1910 C   0  0  0  0  0  0  0  0  0  0  0  0
    2.1390   19.2450  -23.8210 N   0  0  0  0  0  0  0  0  0  0  0  0
    2.6260   18.2420  -22.8400 C   0  0  0  0  0  0  0  0  0  0  0  0
    3.3060   17.0470  -23.5280 C   0  0  0  0  0  0  0  0  0  0  0  0
    4.4810   17.4230  -24.2620 O   0  0  0  0  0  0  0  0  0  0  0  0
    4.4490   18.7810  -24.7200 C   0  0  0  0  0  0  0  0  0  0  0  0
    3.0240   19.2750  -25.0050 C   0  0  0  0  0  0  0  0  0  0  0  0
   -0.1400   21.0210  -24.3880 C   0  0  0  0  0  0  0  0  0  0  0  0
   -1.0090   21.9120  -25.0060 C   0  0  0  0  0  0  0  0  0  0  0  0
   -0.6770   23.2800  -25.1170 C   0  0  0  0  0  0  0  0  0  0  0  0
   -1.4910   24.2660  -25.7120 C   0  0  0  0  0  0  0  0  0  0  0  0
   -2.7320   23.9270  -26.2430 N   0  0  0  0  0  0  0  0  0  0  0  0
   -2.8360   23.0780  -27.4280 C   0  0  2  0  0  0  0  0  0  0  0  0
   -1.9020   23.5780  -28.5350 C   0  0  0  0  0  0  0  0  0  0  0  0
   -2.2350   23.0310  -29.9360 C   0  0  1  0  0  0  0  0  0  0  0  0
   -1.8750   21.5450  -30.1210 C   0  0  0  0  0  0  0  0  0  0  0  0
   -2.7950   20.5710  -29.3880 C   0  0  0  0  0  0  0  0  0  0  0  0
   -4.2610   20.9990  -29.4310 C   0  0  0  0  0  0  0  0  0  0  0  0
   -4.5050   22.5180  -29.3070 C   0  0  1  0  0  0  0  0  0  0  0  0
   -4.3020   23.0650  -27.8850 C   0  0  0  0  0  0  0  0  0  0  0  0
   -3.6530   23.2000  -30.2920 N   0  0  0  0  0  0  0  0  0  0  0  0
   -4.0170   24.6150  -30.5690 C   0  0  0  0  0  0  0  0  0  0  0  0
   -4.9070   24.9260  -31.7910 C   0  0  0  0  0  0  0  0  0  0  0  0
   -4.2510   25.7410  -32.6530 F   0  0  0  0  0  0  0  0  0  0  0  0
   -6.0400   25.5680  -31.4260 F   0  0  0  0  0  0  0  0  0  0  0  0
   -5.2530   23.8120  -32.4700 F   0  0  0  0  0  0  0  0  0  0  0  0
   -1.0850   25.5480  -25.8270 N   0  0  0  0  0  0  0  0  0  0  0  0
    1.1370   28.0890  -23.3250 N   0  0  0  0  0  0  0  0  0  0  0  0
    1.3840   29.3330  -22.8980 N   0  0  0  0  0  0  0  0  0  0  0  0
  1  2  1  0
  2  3  2  0
  3  4  1  0
  4  5  1  0
  5  6  1  0
  6  7  2  0
  7  8  1  0
  8  9  2  0
  9 10  1  0
 10 11  1  0
 11 12  1  0
 12 13  1  0
 13 14  1  0
 14 15  1  0
 15 16  1  0
 16 17  1  0
 10 18  2  0
 18 19  1  0
 19 20  2  0
 20 21  1  0
 21 22  1  0
 23 22  1  1
 23 24  1  0
 25 24  1  1
 25 26  1  0
 26 27  1  0
 27 28  1  0
 29 28  1  1
 29 30  1  0
 29 31  1  0
 31 32  1  0
 32 33  1  0
 33 34  1  0
 33 35  1  0
 33 36  1  0
 21 37  2  0
  4 38  2  0
 38 39  1  0
 39  2  1  0
 37  6  1  0
 20  8  1  0
 30 23  1  0
 17 12  1  0
 31 25  1  0
M  END
$$$$
