RIIBDIVNQDTPRT-YCRPNKLZSA-N
     RDKit          3D

 28 32  0  0  0  0  0  0  0  0999 V2000
    4.9500  -27.8090   23.0670 C   0  0  0  0  0  0  0  0  0  0  0  0
    4.4950  -26.6500   22.2290 C   0  0  0  0  0  0  0  0  0  0  0  0
    5.3010  -25.5030   22.1390 C   0  0  0  0  0  0  0  0  0  0  0  0
    4.9120  -24.4050   21.3640 C   0  0  0  0  0  0  0  0  0  0  0  0
    5.7270  -23.2750   21.2770 N   0  0  0  0  0  0  0  0  0  0  0  0
    7.1490  -23.5070   21.0360 C   0  0  0  0  0  0  0  0  0  0  0  0
    7.7900  -22.2300   20.5070 C   0  0  0  0  0  0  0  0  0  0  0  0
    7.5500  -21.0350   21.4500 C   0  0  1  0  0  0  0  0  0  0  0  0
    8.1570  -19.7520   20.8560 C   0  0  0  0  0  0  0  0  0  0  0  0
    7.3500  -19.1940   19.6830 C   0  0  0  0  0  0  0  0  0  0  0  0
    5.9410  -19.0770   20.0480 N   0  0  0  0  0  0  0  0  0  0  0  0
    5.1660  -18.2810   19.2020 C   0  0  0  0  0  0  0  0  0  0  0  0
    4.2800  -18.8700   18.3520 N   0  0  0  0  0  0  0  0  0  0  0  0
    3.5410  -18.1020   17.5300 C   0  0  0  0  0  0  0  0  0  0  0  0
    3.5380  -16.7650   17.4220 N   0  0  0  0  0  0  0  0  0  0  0  0
    4.3950  -16.2110   18.2930 C   0  0  0  0  0  0  0  0  0  0  0  0
    4.5880  -14.8650   18.4340 N   0  0  0  0  0  0  0  0  0  0  0  0
    5.5020  -14.6290   19.4270 C   0  0  0  0  0  0  0  0  0  0  0  0
    5.9030  -15.8520   19.9230 C   0  0  0  0  0  0  0  0  0  0  0  0
    5.2190  -16.8700   19.1930 C   0  0  0  0  0  0  0  0  0  0  0  0
    5.2840  -20.2940   20.5450 C   0  0  0  0  0  0  0  0  0  0  0  0
    6.0410  -20.8490   21.7780 C   0  0  2  0  0  0  0  0  0  0  0  0
    5.8650  -19.8650   22.9600 C   0  0  0  0  0  0  0  0  0  0  0  0
    5.4020  -22.1930   22.2100 C   0  0  0  0  0  0  0  0  0  0  0  0
    3.7570  -24.4390   20.6640 N   0  0  0  0  0  0  0  0  0  0  0  0
    2.9830  -25.5470   20.7540 C   0  0  0  0  0  0  0  0  0  0  0  0
    3.2990  -26.6620   21.5140 C   0  0  0  0  0  0  0  0  0  0  0  0
    2.1050  -28.1290   21.5280 Br  0  0  0  0  0  0  0  0  0  0  0  0
  1  2  1  0
  2  3  2  0
  3  4  1  0
  4  5  1  0
  5  6  1  0
  6  7  1  0
  8  7  1  6
  8  9  1  0
  9 10  1  0
 10 11  1  0
 11 12  1  0
 12 13  2  0
 13 14  1  0
 14 15  2  0
 15 16  1  0
 16 17  1  0
 17 18  1  0
 18 19  2  0
 19 20  1  0
 11 21  1  0
 21 22  1  0
 22 23  1  1
 22 24  1  0
  4 25  2  0
 25 26  1  0
 26 27  2  0
 27 28  1  0
 27  2  1  0
 24  5  1  0
 22  8  1  0
 20 12  1  0
 20 16  2  0
M  END
$$$$
