MMUPKVYIRSGJIV-UHFFFAOYSA-N
     RDKit          3D

 30 31  0  0  0  0  0  0  0  0999 V2000
   45.3830  -43.4920  108.0540 C   0  0  0  0  0  0  0  0  0  0  0  0
   46.4870  -42.4450  108.1040 C   0  0  0  0  0  0  0  0  0  0  0  0
   46.3630  -41.3740  107.0150 C   0  0  0  0  0  0  0  0  0  0  0  0
   46.4480  -39.9540  107.5420 C   0  0  0  0  0  0  0  0  0  0  0  0
   45.3780  -39.3830  108.2580 C   0  0  0  0  0  0  0  0  0  0  0  0
   44.2830  -40.1850  108.4590 O   0  0  0  0  0  0  0  0  0  0  0  0
   43.0510  -39.7460  107.8820 C   0  0  0  0  0  0  0  0  0  0  0  0
   42.9800  -40.2620  106.4490 C   0  0  0  0  0  0  0  0  0  0  0  0
   43.0310  -39.1560  105.3970 C   0  0  0  0  0  0  0  0  0  0  0  0
   41.6740  -39.2150  104.1670 S   0  0  0  0  0  0  0  0  0  0  0  0
   42.4960  -39.9290  102.7440 C   0  0  0  0  0  0  0  0  0  0  0  0
   43.1900  -41.1280  102.9620 C   0  0  0  0  0  0  0  0  0  0  0  0
   43.8890  -41.7580  101.9280 C   0  0  0  0  0  0  0  0  0  0  0  0
   43.8870  -41.2150  100.6400 C   0  0  0  0  0  0  0  0  0  0  0  0
   44.6520  -41.8840   99.5220 C   0  0  0  0  0  0  0  0  0  0  0  0
   44.3240  -41.3440   98.1500 C   0  0  0  0  0  0  0  0  0  0  0  0
   43.4620  -41.7240   97.3750 O   0  0  0  0  0  0  0  0  0  0  0  0
   45.1110  -40.2940   97.8270 O   0  0  0  0  0  0  0  0  0  0  0  0
   43.1650  -40.0350  100.4060 C   0  0  0  0  0  0  0  0  0  0  0  0
   42.4630  -39.4040  101.4430 C   0  0  0  0  0  0  0  0  0  0  0  0
   41.5450  -37.9990  101.0210 Cl  0  0  0  0  0  0  0  0  0  0  0  0
   45.4810  -38.0700  108.7270 C   0  0  0  0  0  0  0  0  0  0  0  0
   46.6280  -37.3100  108.4840 C   0  0  0  0  0  0  0  0  0  0  0  0
   47.6990  -37.8510  107.7690 C   0  0  0  0  0  0  0  0  0  0  0  0
   48.9360  -37.0530  107.4970 C   0  0  0  0  0  0  0  0  0  0  0  0
   50.0350  -37.5750  107.6990 O   0  0  0  0  0  0  0  0  0  0  0  0
   48.8410  -35.6330  106.9770 C   0  0  0  0  0  0  0  0  0  0  0  0
   49.4720  -34.6520  107.9460 C   0  0  0  0  0  0  0  0  0  0  0  0
   47.5950  -39.1730  107.2970 C   0  0  0  0  0  0  0  0  0  0  0  0
   48.6080  -39.7640  106.5770 O   0  0  0  0  0  0  0  0  0  0  0  0
  1  2  1  0
  2  3  1  0
  3  4  1  0
  4  5  2  0
  5  6  1  0
  6  7  1  0
  7  8  1  0
  8  9  1  0
  9 10  1  0
 10 11  1  0
 11 12  2  0
 12 13  1  0
 13 14  2  0
 14 15  1  0
 15 16  1  0
 16 17  2  0
 16 18  1  0
 14 19  1  0
 19 20  2  0
 20 21  1  0
  5 22  1  0
 22 23  2  0
 23 24  1  0
 24 25  1  0
 25 26  2  0
 25 27  1  0
 27 28  1  0
 24 29  2  0
 29 30  1  0
 29  4  1  0
 20 11  1  0
M  END
$$$$
