MXA009
     RDKit          3D

 82 87  0  0  0  0  0  0  0  0999 V2000
    8.6121   -2.2460    0.5212 C   0  0  0  0  0  0  0  0  0  0  0  0
    7.8313   -0.9857    0.2704 C   0  0  0  0  0  0  0  0  0  0  0  0
    6.4545   -1.0765    0.0118 C   0  0  0  0  0  0  0  0  0  0  0  0
    5.6820    0.0628   -0.2234 C   0  0  0  0  0  0  0  0  0  0  0  0
    4.3595   -0.1877   -0.4618 O   0  0  0  0  0  0  0  0  0  0  0  0
    3.5054    0.9377   -0.6669 C   0  0  0  0  0  0  0  0  0  0  0  0
    2.0829    0.4352   -0.8985 C   0  0  0  0  0  0  0  0  0  0  0  0
    1.5216   -0.2704    0.3392 C   0  0  0  0  0  0  0  0  0  0  0  0
    0.1099   -0.7588    0.1277 C   0  0  0  0  0  0  0  0  0  0  0  0
   -1.0528    0.0169    0.0991 C   0  0  0  0  0  0  0  0  0  0  0  0
   -2.1047   -0.8591   -0.1369 N   0  0  0  0  0  0  0  0  0  0  0  0
   -1.6458   -2.1843   -0.1973 C   0  0  0  0  0  0  0  0  0  0  0  0
   -2.2924   -3.4490   -0.3487 C   0  0  0  0  0  0  0  0  0  0  0  0
   -3.7355   -3.5470   -0.4084 C   0  0  0  0  0  0  0  0  0  0  0  0
   -4.6015   -3.6541   -1.5279 C   0  0  0  0  0  0  0  0  0  0  0  0
   -4.2494   -3.6587   -2.9691 C   0  0  0  0  0  0  0  0  0  0  0  0
   -5.8834   -3.7178   -1.1500 N   0  0  0  0  0  0  0  0  0  0  0  0
   -5.8311   -3.7554    0.1938 N   0  0  0  0  0  0  0  0  0  0  0  0
   -7.0584   -3.8952    0.9427 C   0  0  0  0  0  0  0  0  0  0  0  0
   -4.5596   -3.6504    0.6994 C   0  0  0  0  0  0  0  0  0  0  0  0
   -4.2654   -3.6692    2.1553 C   0  0  0  0  0  0  0  0  0  0  0  0
   -1.4925   -4.6114   -0.4198 C   0  0  0  0  0  0  0  0  0  0  0  0
   -2.1812   -6.1930   -0.6068 Cl  0  0  0  0  0  0  0  0  0  0  0  0
   -0.1092   -4.5374   -0.3359 C   0  0  0  0  0  0  0  0  0  0  0  0
    0.5131   -3.3035   -0.1623 C   0  0  0  0  0  0  0  0  0  0  0  0
   -0.2532   -2.1194   -0.0822 C   0  0  0  0  0  0  0  0  0  0  0  0
   -3.5034   -0.5179   -0.3339 C   0  0  0  0  0  0  0  0  0  0  0  0
   -3.9073    0.9309   -0.5277 C   0  0  0  0  0  0  0  0  0  0  0  0
   -2.8949    1.6952   -1.3604 C   0  0  0  0  0  0  0  0  0  0  0  0
   -1.9116    2.2826   -0.4569 N   0  0  0  0  0  0  0  0  0  0  0  0
   -1.9468    3.7100   -0.2788 C   0  0  0  0  0  0  0  0  0  0  0  0
   -2.1439    4.5582   -1.3811 C   0  0  0  0  0  0  0  0  0  0  0  0
   -2.1975    5.9465   -1.2267 C   0  0  0  0  0  0  0  0  0  0  0  0
   -2.0576    6.5134    0.0374 C   0  0  0  0  0  0  0  0  0  0  0  0
   -1.8593    5.6892    1.1491 C   0  0  0  0  0  0  0  0  0  0  0  0
   -1.7314    6.2437    2.5186 C   0  0  0  0  0  0  0  0  0  0  0  0
   -1.6972    5.6040    3.5529 O   0  0  0  0  0  0  0  0  0  0  0  0
   -1.6558    7.5869    2.5312 O   0  0  0  0  0  0  0  0  0  0  0  0
   -1.8018    4.2967    0.9867 C   0  0  0  0  0  0  0  0  0  0  0  0
   -1.0662    1.4711    0.3239 C   0  0  0  0  0  0  0  0  0  0  0  0
   -0.2661    1.9645    1.1204 O   0  0  0  0  0  0  0  0  0  0  0  0
    6.2907    1.3166   -0.2026 C   0  0  0  0  0  0  0  0  0  0  0  0
    7.6686    1.4440    0.0528 C   0  0  0  0  0  0  0  0  0  0  0  0
    8.2838    2.8176    0.0618 C   0  0  0  0  0  0  0  0  0  0  0  0
    8.4336    0.2850    0.2884 C   0  0  0  0  0  0  0  0  0  0  0  0
   10.1348    0.4256    0.6028 Cl  0  0  0  0  0  0  0  0  0  0  0  0
    9.4041   -2.3605   -0.2261 H   0  0  0  0  0  0  0  0  0  0  0  0
    9.0504   -2.2308    1.5243 H   0  0  0  0  0  0  0  0  0  0  0  0
    7.9734   -3.1337    0.4581 H   0  0  0  0  0  0  0  0  0  0  0  0
    5.9664   -2.0496   -0.0075 H   0  0  0  0  0  0  0  0  0  0  0  0
    3.8285    1.4909   -1.5567 H   0  0  0  0  0  0  0  0  0  0  0  0
    3.5248    1.5987    0.2079 H   0  0  0  0  0  0  0  0  0  0  0  0
    1.4474    1.2840   -1.1759 H   0  0  0  0  0  0  0  0  0  0  0  0
    2.0767   -0.2653   -1.7434 H   0  0  0  0  0  0  0  0  0  0  0  0
    2.1658   -1.1182    0.6006 H   0  0  0  0  0  0  0  0  0  0  0  0
    1.5618    0.3933    1.2099 H   0  0  0  0  0  0  0  0  0  0  0  0
   -4.2435   -2.6354   -3.3584 H   0  0  0  0  0  0  0  0  0  0  0  0
   -3.2594   -4.0951   -3.1346 H   0  0  0  0  0  0  0  0  0  0  0  0
   -4.9705   -4.2440   -3.5492 H   0  0  0  0  0  0  0  0  0  0  0  0
   -7.0472   -4.8692    1.4382 H   0  0  0  0  0  0  0  0  0  0  0  0
   -7.9121   -3.8319    0.2617 H   0  0  0  0  0  0  0  0  0  0  0  0
   -7.1130   -3.0862    1.6759 H   0  0  0  0  0  0  0  0  0  0  0  0
   -3.1889   -3.6672    2.3515 H   0  0  0  0  0  0  0  0  0  0  0  0
   -4.6847   -4.5658    2.6236 H   0  0  0  0  0  0  0  0  0  0  0  0
   -4.6941   -2.7875    2.6428 H   0  0  0  0  0  0  0  0  0  0  0  0
    0.4982   -5.4374   -0.3908 H   0  0  0  0  0  0  0  0  0  0  0  0
    1.5968   -3.2611   -0.0814 H   0  0  0  0  0  0  0  0  0  0  0  0
   -4.0574   -0.9214    0.5182 H   0  0  0  0  0  0  0  0  0  0  0  0
   -3.8080   -1.0372   -1.2475 H   0  0  0  0  0  0  0  0  0  0  0  0
   -4.8840    0.9462   -1.0279 H   0  0  0  0  0  0  0  0  0  0  0  0
   -4.0581    1.4111    0.4481 H   0  0  0  0  0  0  0  0  0  0  0  0
   -3.4368    2.4642   -1.9184 H   0  0  0  0  0  0  0  0  0  0  0  0
   -2.3858    1.0637   -2.0982 H   0  0  0  0  0  0  0  0  0  0  0  0
   -2.2141    4.1584   -2.3896 H   0  0  0  0  0  0  0  0  0  0  0  0
   -2.3438    6.5843   -2.0944 H   0  0  0  0  0  0  0  0  0  0  0  0
   -2.1065    7.5941    0.1461 H   0  0  0  0  0  0  0  0  0  0  0  0
   -1.5651    7.8016    3.4837 H   0  0  0  0  0  0  0  0  0  0  0  0
   -1.6737    3.6788    1.8737 H   0  0  0  0  0  0  0  0  0  0  0  0
    5.7126    2.2173   -0.3847 H   0  0  0  0  0  0  0  0  0  0  0  0
    7.5355    3.5952   -0.1290 H   0  0  0  0  0  0  0  0  0  0  0  0
    8.7317    3.0307    1.0383 H   0  0  0  0  0  0  0  0  0  0  0  0
    9.0456    2.8984   -0.7209 H   0  0  0  0  0  0  0  0  0  0  0  0
  1  2  1  0
  2  3  2  0
  3  4  1  0
  4  5  1  0
  5  6  1  0
  6  7  1  0
  7  8  1  0
  8  9  1  0
  9 10  2  0
 10 11  1  0
 11 12  1  0
 12 13  1  0
 13 14  1  0
 14 15  1  0
 15 16  1  0
 15 17  2  0
 17 18  1  0
 18 19  1  0
 18 20  1  0
 20 21  1  0
 13 22  2  0
 22 23  1  0
 22 24  1  0
 24 25  2  0
 25 26  1  0
 11 27  1  0
 27 28  1  0
 28 29  1  0
 29 30  1  0
 30 31  1  0
 31 32  2  0
 32 33  1  0
 33 34  2  0
 34 35  1  0
 35 36  1  0
 36 37  2  0
 36 38  1  0
 35 39  2  0
 30 40  1  0
 40 41  2  0
  4 42  2  0
 42 43  1  0
 43 44  1  0
 43 45  2  0
 45 46  1  0
 45  2  1  0
 26  9  1  0
 39 31  1  0
 40 10  1  0
 26 12  2  0
 20 14  2  0
  1 47  1  0
  1 48  1  0
  1 49  1  0
  3 50  1  0
  6 51  1  0
  6 52  1  0
  7 53  1  0
  7 54  1  0
  8 55  1  0
  8 56  1  0
 16 57  1  0
 16 58  1  0
 16 59  1  0
 19 60  1  0
 19 61  1  0
 19 62  1  0
 21 63  1  0
 21 64  1  0
 21 65  1  0
 24 66  1  0
 25 67  1  0
 27 68  1  0
 27 69  1  0
 28 70  1  0
 28 71  1  0
 29 72  1  0
 29 73  1  0
 32 74  1  0
 33 75  1  0
 34 76  1  0
 38 77  1  0
 39 78  1  0
 42 79  1  0
 44 80  1  0
 44 81  1  0
 44 82  1  0
M  END
$$$$
