MXA001
     RDKit          3D

 53 57  0  0  0  0  0  0  0  0999 V2000
   -0.6692   -1.0749   -2.4153 O   0  0  0  0  0  0  0  0  0  0  0  0
   -0.4469   -0.5937   -1.3090 C   0  0  0  0  0  0  0  0  0  0  0  0
    0.7981   -0.6253   -0.7886 O   0  0  0  0  0  0  0  0  0  0  0  0
   -1.3956    0.0396   -0.4154 C   0  0  0  0  0  0  0  0  0  0  0  0
   -1.2582    0.4400    0.9196 C   0  0  0  0  0  0  0  0  0  0  0  0
   -0.0231    0.3841    1.7802 C   0  0  0  0  0  0  0  0  0  0  0  0
    0.8602    1.6224    1.5847 C   0  0  0  0  0  0  0  0  0  0  0  0
    2.1449    1.5563    2.4102 C   0  0  0  0  0  0  0  0  0  0  0  0
    2.9386    0.4066    2.1162 O   0  0  0  0  0  0  0  0  0  0  0  0
    3.5854    0.3408    0.9045 C   0  0  0  0  0  0  0  0  0  0  0  0
    3.9633    1.4641    0.1630 C   0  0  0  0  0  0  0  0  0  0  0  0
    4.6168    1.3144   -1.0600 C   0  0  0  0  0  0  0  0  0  0  0  0
    4.9073    0.0428   -1.5473 C   0  0  0  0  0  0  0  0  0  0  0  0
    4.5573   -1.1007   -0.8155 C   0  0  0  0  0  0  0  0  0  0  0  0
    4.8610   -2.3817   -1.3052 C   0  0  0  0  0  0  0  0  0  0  0  0
    4.5190   -3.5252   -0.5819 C   0  0  0  0  0  0  0  0  0  0  0  0
    3.8658   -3.4018    0.6382 C   0  0  0  0  0  0  0  0  0  0  0  0
    3.5545   -2.1347    1.1352 C   0  0  0  0  0  0  0  0  0  0  0  0
    3.8928   -0.9600    0.4283 C   0  0  0  0  0  0  0  0  0  0  0  0
   -2.5390    0.9005    1.3726 C   0  0  0  0  0  0  0  0  0  0  0  0
   -3.0127    1.3913    2.6087 C   0  0  0  0  0  0  0  0  0  0  0  0
   -4.3619    1.7207    2.7566 C   0  0  0  0  0  0  0  0  0  0  0  0
   -5.2490    1.5417    1.7009 C   0  0  0  0  0  0  0  0  0  0  0  0
   -4.8137    1.0441    0.4661 C   0  0  0  0  0  0  0  0  0  0  0  0
   -3.4369    0.7716    0.3146 C   0  0  0  0  0  0  0  0  0  0  0  0
   -2.6878    0.3854   -0.7833 N   0  0  0  0  0  0  0  0  0  0  0  0
   -3.2018    0.4704   -2.1423 C   0  0  0  0  0  0  0  0  0  0  0  0
   -4.1992   -0.6288   -2.4894 C   0  0  0  0  0  0  0  0  0  0  0  0
   -5.3468   -0.8161   -1.4958 C   0  0  0  0  0  0  0  0  0  0  0  0
   -6.0091    0.7464   -0.8243 S   0  0  0  0  0  0  0  0  0  0  0  0
    1.3417   -1.1096   -1.4474 H   0  0  0  0  0  0  0  0  0  0  0  0
   -0.3157    0.3184    2.8367 H   0  0  0  0  0  0  0  0  0  0  0  0
    0.5307   -0.5399    1.5834 H   0  0  0  0  0  0  0  0  0  0  0  0
    1.1035    1.7364    0.5217 H   0  0  0  0  0  0  0  0  0  0  0  0
    0.3008    2.5224    1.8721 H   0  0  0  0  0  0  0  0  0  0  0  0
    1.8749    1.4760    3.4704 H   0  0  0  0  0  0  0  0  0  0  0  0
    2.7272    2.4801    2.3304 H   0  0  0  0  0  0  0  0  0  0  0  0
    3.7743    2.4709    0.5139 H   0  0  0  0  0  0  0  0  0  0  0  0
    4.9079    2.1929   -1.6324 H   0  0  0  0  0  0  0  0  0  0  0  0
    5.4214   -0.0477   -2.5027 H   0  0  0  0  0  0  0  0  0  0  0  0
    5.3761   -2.5002   -2.2563 H   0  0  0  0  0  0  0  0  0  0  0  0
    4.7679   -4.5091   -0.9696 H   0  0  0  0  0  0  0  0  0  0  0  0
    3.5975   -4.2880    1.2080 H   0  0  0  0  0  0  0  0  0  0  0  0
    3.0402   -2.0637    2.0924 H   0  0  0  0  0  0  0  0  0  0  0  0
   -2.3361    1.5085    3.4503 H   0  0  0  0  0  0  0  0  0  0  0  0
   -4.7235    2.0999    3.7080 H   0  0  0  0  0  0  0  0  0  0  0  0
   -6.3010    1.7785    1.8486 H   0  0  0  0  0  0  0  0  0  0  0  0
   -2.3687    0.4706   -2.8500 H   0  0  0  0  0  0  0  0  0  0  0  0
   -3.6512    1.4651   -2.2497 H   0  0  0  0  0  0  0  0  0  0  0  0
   -3.6716   -1.5891   -2.5854 H   0  0  0  0  0  0  0  0  0  0  0  0
   -4.6158   -0.4106   -3.4827 H   0  0  0  0  0  0  0  0  0  0  0  0
   -6.1671   -1.3468   -1.9917 H   0  0  0  0  0  0  0  0  0  0  0  0
   -5.0271   -1.4555   -0.6672 H   0  0  0  0  0  0  0  0  0  0  0  0
  1  2  2  0
  2  3  1  0
  2  4  1  0
  4  5  2  0
  5  6  1  0
  6  7  1  0
  7  8  1  0
  8  9  1  0
  9 10  1  0
 10 11  2  0
 11 12  1  0
 12 13  2  0
 13 14  1  0
 14 15  2  0
 15 16  1  0
 16 17  2  0
 17 18  1  0
 18 19  2  0
  5 20  1  0
 20 21  2  0
 21 22  1  0
 22 23  2  0
 23 24  1  0
 24 25  2  0
 25 26  1  0
 26 27  1  0
 27 28  1  0
 28 29  1  0
 29 30  1  0
 26  4  1  0
 19 10  1  0
 25 20  1  0
 19 14  1  0
 30 24  1  0
  3 31  1  0
  6 32  1  0
  6 33  1  0
  7 34  1  0
  7 35  1  0
  8 36  1  0
  8 37  1  0
 11 38  1  0
 12 39  1  0
 13 40  1  0
 15 41  1  0
 16 42  1  0
 17 43  1  0
 18 44  1  0
 21 45  1  0
 22 46  1  0
 23 47  1  0
 27 48  1  0
 27 49  1  0
 28 50  1  0
 28 51  1  0
 29 52  1  0
 29 53  1  0
M  END
$$$$
