MXA002
     RDKit          3D

 68 73  0  0  0  0  0  0  0  0999 V2000
   -2.8750    1.0953   -2.5609 O   0  0  0  0  0  0  0  0  0  0  0  0
   -4.0083    0.7110   -2.7692 C   0  0  0  0  0  0  0  0  0  0  0  0
   -4.6367    0.9888   -3.9285 O   0  0  0  0  0  0  0  0  0  0  0  0
   -4.8756   -0.0826   -1.8667 C   0  0  0  0  0  0  0  0  0  0  0  0
   -6.2318    0.2760   -1.7668 C   0  0  0  0  0  0  0  0  0  0  0  0
   -7.0806   -0.4047   -0.8959 C   0  0  0  0  0  0  0  0  0  0  0  0
   -6.5830   -1.4475   -0.1219 C   0  0  0  0  0  0  0  0  0  0  0  0
   -5.2377   -1.8107   -0.2203 C   0  0  0  0  0  0  0  0  0  0  0  0
   -4.3550   -1.1345   -1.0862 C   0  0  0  0  0  0  0  0  0  0  0  0
   -2.9623   -1.5918   -1.1692 C   0  0  0  0  0  0  0  0  0  0  0  0
   -2.5425   -2.3934   -2.2497 C   0  0  0  0  0  0  0  0  0  0  0  0
   -1.2411   -2.8742   -2.3299 C   0  0  0  0  0  0  0  0  0  0  0  0
   -0.3124   -2.5821   -1.3327 C   0  0  0  0  0  0  0  0  0  0  0  0
   -0.7214   -1.7862   -0.2495 C   0  0  0  0  0  0  0  0  0  0  0  0
   -2.0242   -1.2730   -0.1451 C   0  0  0  0  0  0  0  0  0  0  0  0
   -2.0603   -0.5007    1.0664 C   0  0  0  0  0  0  0  0  0  0  0  0
   -3.1257    0.2938    1.6442 C   0  0  0  0  0  0  0  0  0  0  0  0
   -3.7495   -0.1113    2.8278 C   0  0  0  0  0  0  0  0  0  0  0  0
   -4.7938    0.6434    3.3623 C   0  0  0  0  0  0  0  0  0  0  0  0
   -5.2218    1.8029    2.7131 C   0  0  0  0  0  0  0  0  0  0  0  0
   -4.6063    2.2234    1.5240 C   0  0  0  0  0  0  0  0  0  0  0  0
   -5.0596    3.4689    0.8080 C   0  0  0  0  0  0  0  0  0  0  0  0
   -5.2029    3.2888   -0.5355 F   0  0  0  0  0  0  0  0  0  0  0  0
   -4.1892    4.5052    0.9582 F   0  0  0  0  0  0  0  0  0  0  0  0
   -6.2661    3.9332    1.2441 F   0  0  0  0  0  0  0  0  0  0  0  0
   -3.5425    1.4676    1.0073 C   0  0  0  0  0  0  0  0  0  0  0  0
   -0.8176   -0.5811    1.6574 C   0  0  0  0  0  0  0  0  0  0  0  0
   -0.0179   -1.3478    0.8547 N   0  0  0  0  0  0  0  0  0  0  0  0
    1.3754   -1.6470    1.1462 C   0  0  0  0  0  0  0  0  0  0  0  0
    2.3280   -0.6828    0.4516 C   0  0  0  0  0  0  0  0  0  0  0  0
    3.7802   -1.0161    0.7739 C   0  0  0  0  0  0  0  0  0  0  0  0
    4.6028   -0.0759    0.0876 O   0  0  0  0  0  0  0  0  0  0  0  0
    5.9653   -0.1761    0.2402 C   0  0  0  0  0  0  0  0  0  0  0  0
    6.5970   -1.1568    1.0128 C   0  0  0  0  0  0  0  0  0  0  0  0
    7.9869   -1.1864    1.1146 C   0  0  0  0  0  0  0  0  0  0  0  0
    8.7579   -0.2377    0.4472 C   0  0  0  0  0  0  0  0  0  0  0  0
    8.1524    0.7557   -0.3345 C   0  0  0  0  0  0  0  0  0  0  0  0
    8.9342    1.7107   -1.0063 C   0  0  0  0  0  0  0  0  0  0  0  0
    8.3407    2.7027   -1.7865 C   0  0  0  0  0  0  0  0  0  0  0  0
    6.9575    2.7537   -1.9045 C   0  0  0  0  0  0  0  0  0  0  0  0
    6.1680    1.8112   -1.2427 C   0  0  0  0  0  0  0  0  0  0  0  0
    6.7406    0.7949   -0.4460 C   0  0  0  0  0  0  0  0  0  0  0  0
   -3.9696    1.5032   -4.4290 H   0  0  0  0  0  0  0  0  0  0  0  0
   -6.6253    1.0994   -2.3594 H   0  0  0  0  0  0  0  0  0  0  0  0
   -8.1265   -0.1185   -0.8199 H   0  0  0  0  0  0  0  0  0  0  0  0
   -7.2390   -1.9814    0.5608 H   0  0  0  0  0  0  0  0  0  0  0  0
   -4.8677   -2.6322    0.3919 H   0  0  0  0  0  0  0  0  0  0  0  0
   -3.2483   -2.6482   -3.0379 H   0  0  0  0  0  0  0  0  0  0  0  0
   -0.9442   -3.4857   -3.1785 H   0  0  0  0  0  0  0  0  0  0  0  0
    0.7020   -2.9604   -1.4078 H   0  0  0  0  0  0  0  0  0  0  0  0
   -3.4315   -1.0216    3.3302 H   0  0  0  0  0  0  0  0  0  0  0  0
   -5.2786    0.3233    4.2811 H   0  0  0  0  0  0  0  0  0  0  0  0
   -6.0435    2.3775    3.1382 H   0  0  0  0  0  0  0  0  0  0  0  0
   -3.0443    1.7869    0.0914 H   0  0  0  0  0  0  0  0  0  0  0  0
   -0.4378   -0.1337    2.5671 H   0  0  0  0  0  0  0  0  0  0  0  0
    1.5011   -1.5991    2.2346 H   0  0  0  0  0  0  0  0  0  0  0  0
    1.5647   -2.6837    0.8461 H   0  0  0  0  0  0  0  0  0  0  0  0
    2.1807   -0.7071   -0.6357 H   0  0  0  0  0  0  0  0  0  0  0  0
    2.1138    0.3514    0.7508 H   0  0  0  0  0  0  0  0  0  0  0  0
    4.0052   -2.0330    0.4311 H   0  0  0  0  0  0  0  0  0  0  0  0
    3.9411   -0.9384    1.8559 H   0  0  0  0  0  0  0  0  0  0  0  0
    6.0372   -1.9142    1.5500 H   0  0  0  0  0  0  0  0  0  0  0  0
    8.4717   -1.9509    1.7165 H   0  0  0  0  0  0  0  0  0  0  0  0
    9.8408   -0.2794    0.5424 H   0  0  0  0  0  0  0  0  0  0  0  0
   10.0188    1.6886   -0.9259 H   0  0  0  0  0  0  0  0  0  0  0  0
    8.9589    3.4337   -2.3005 H   0  0  0  0  0  0  0  0  0  0  0  0
    6.4877    3.5243   -2.5097 H   0  0  0  0  0  0  0  0  0  0  0  0
    5.0866    1.8722   -1.3512 H   0  0  0  0  0  0  0  0  0  0  0  0
  1  2  2  0
  2  3  1  0
  2  4  1  0
  4  5  2  0
  5  6  1  0
  6  7  2  0
  7  8  1  0
  8  9  2  0
  9 10  1  0
 10 11  2  0
 11 12  1  0
 12 13  2  0
 13 14  1  0
 14 15  2  0
 15 16  1  0
 16 17  1  0
 17 18  2  0
 18 19  1  0
 19 20  2  0
 20 21  1  0
 21 22  1  0
 22 23  1  0
 22 24  1  0
 22 25  1  0
 21 26  2  0
 16 27  2  0
 27 28  1  0
 28 29  1  0
 29 30  1  0
 30 31  1  0
 31 32  1  0
 32 33  1  0
 33 34  2  0
 34 35  1  0
 35 36  2  0
 36 37  1  0
 37 38  2  0
 38 39  1  0
 39 40  2  0
 40 41  1  0
 41 42  2  0
  9  4  1  0
 15 10  1  0
 26 17  1  0
 42 33  1  0
 28 14  1  0
 42 37  1  0
  3 43  1  0
  5 44  1  0
  6 45  1  0
  7 46  1  0
  8 47  1  0
 11 48  1  0
 12 49  1  0
 13 50  1  0
 18 51  1  0
 19 52  1  0
 20 53  1  0
 26 54  1  0
 27 55  1  0
 29 56  1  0
 29 57  1  0
 30 58  1  0
 30 59  1  0
 31 60  1  0
 31 61  1  0
 34 62  1  0
 35 63  1  0
 36 64  1  0
 38 65  1  0
 39 66  1  0
 40 67  1  0
 41 68  1  0
M  END
$$$$
