MXB024
     RDKit          3D

 68 71  0  0  0  0  0  0  0  0999 V2000
    7.0236    2.1265   -1.6810 O   0  0  0  0  0  0  0  0  0  0  0  0
    7.1158    1.0054   -1.1964 C   0  0  0  0  0  0  0  0  0  0  0  0
    8.3810    0.2481   -1.3949 C   0  0  0  0  0  0  0  0  0  0  0  0
    8.4040   -1.0579   -1.7038 C   0  0  0  0  0  0  0  0  0  0  0  0
    9.6270   -1.8489   -1.9215 C   0  0  0  0  0  0  0  0  0  0  0  0
    9.5579   -3.2406   -1.7522 C   0  0  0  0  0  0  0  0  0  0  0  0
   10.6821   -4.0472   -1.9501 C   0  0  0  0  0  0  0  0  0  0  0  0
   11.8916   -3.4722   -2.3306 C   0  0  0  0  0  0  0  0  0  0  0  0
   11.9665   -2.0948   -2.5179 C   0  0  0  0  0  0  0  0  0  0  0  0
   13.4572   -1.3829   -2.9986 Cl  0  0  0  0  0  0  0  0  0  0  0  0
   10.8449   -1.2847   -2.3236 C   0  0  0  0  0  0  0  0  0  0  0  0
    6.2028    0.3547   -0.3965 N   0  0  0  0  0  0  0  0  0  0  0  0
    4.9218    0.8070   -0.0208 C   0  0  0  0  0  0  0  0  0  0  0  0
    4.3408    1.9843   -0.4938 C   0  0  0  0  0  0  0  0  0  0  0  0
    3.0598    2.3639   -0.0721 C   0  0  0  0  0  0  0  0  0  0  0  0
    2.3416    1.5735    0.8329 C   0  0  0  0  0  0  0  0  0  0  0  0
    0.9931    2.0482    1.2591 C   0  0  0  0  0  0  0  0  0  0  0  0
    0.3449    2.8038    0.5544 O   0  0  0  0  0  0  0  0  0  0  0  0
    0.5336    1.5480    2.4854 N   0  0  0  0  0  0  0  0  0  0  0  0
   -0.8601    2.0410    3.2467 S   0  0  0  0  0  0  0  0  0  0  0  0
   -0.9418    3.4836    3.2417 O   0  0  0  0  0  0  0  0  0  0  0  0
   -0.8869    1.3035    4.4933 O   0  0  0  0  0  0  0  0  0  0  0  0
   -2.1519    1.3822    2.2245 C   0  0  0  0  0  0  0  0  0  0  0  0
   -2.7031    2.1635    1.2117 C   0  0  0  0  0  0  0  0  0  0  0  0
   -3.7746    1.6743    0.4510 C   0  0  0  0  0  0  0  0  0  0  0  0
   -4.3641    0.4250    0.7081 C   0  0  0  0  0  0  0  0  0  0  0  0
   -5.4025   -0.0779   -0.0880 N   0  0  0  0  0  0  0  0  0  0  0  0
   -6.2679    0.7874   -0.8957 C   0  0  0  0  0  0  0  0  0  0  0  0
   -7.1929    1.6845   -0.0626 C   0  0  0  0  0  0  0  0  0  0  0  0
   -8.2826    0.7782    1.0981 S   0  0  0  0  0  0  0  0  0  0  0  0
   -9.4596   -0.0663    0.0502 C   0  0  0  0  0  0  0  0  0  0  0  0
   -9.7630    0.2910   -1.2678 C   0  0  0  0  0  0  0  0  0  0  0  0
  -10.7238   -0.4209   -1.9951 C   0  0  0  0  0  0  0  0  0  0  0  0
  -11.4080   -1.4832   -1.4046 C   0  0  0  0  0  0  0  0  0  0  0  0
  -11.1278   -1.8408   -0.0890 C   0  0  0  0  0  0  0  0  0  0  0  0
  -10.1564   -1.1387    0.6304 C   0  0  0  0  0  0  0  0  0  0  0  0
   -3.7515   -0.3526    1.7205 C   0  0  0  0  0  0  0  0  0  0  0  0
   -4.2404   -1.6987    2.0272 N   0  0  0  0  0  0  0  0  0  0  0  0
   -3.3924   -2.5523    2.3306 O   0  0  0  0  0  0  0  0  0  0  0  0
   -5.4645   -1.8990    1.9902 O   0  0  0  0  0  0  0  0  0  0  0  0
   -2.6690    0.1172    2.4875 C   0  0  0  0  0  0  0  0  0  0  0  0
    2.9165    0.3859    1.3009 C   0  0  0  0  0  0  0  0  0  0  0  0
    4.1966    0.0087    0.8726 C   0  0  0  0  0  0  0  0  0  0  0  0
    9.2728    0.8629   -1.3271 H   0  0  0  0  0  0  0  0  0  0  0  0
    7.4710   -1.6110   -1.8086 H   0  0  0  0  0  0  0  0  0  0  0  0
    8.6252   -3.7164   -1.4577 H   0  0  0  0  0  0  0  0  0  0  0  0
   10.6104   -5.1230   -1.8097 H   0  0  0  0  0  0  0  0  0  0  0  0
   12.7657   -4.0982   -2.4839 H   0  0  0  0  0  0  0  0  0  0  0  0
   10.9353   -0.2159   -2.4988 H   0  0  0  0  0  0  0  0  0  0  0  0
    6.5018   -0.5241    0.0086 H   0  0  0  0  0  0  0  0  0  0  0  0
    4.8546    2.6294   -1.2005 H   0  0  0  0  0  0  0  0  0  0  0  0
    2.6314    3.2886   -0.4563 H   0  0  0  0  0  0  0  0  0  0  0  0
    1.1131    0.9843    3.0961 H   0  0  0  0  0  0  0  0  0  0  0  0
   -2.3041    3.1548    0.9954 H   0  0  0  0  0  0  0  0  0  0  0  0
   -4.1397    2.3156   -0.3460 H   0  0  0  0  0  0  0  0  0  0  0  0
   -5.9775   -0.7573    0.4335 H   0  0  0  0  0  0  0  0  0  0  0  0
   -6.8665    0.1351   -1.5430 H   0  0  0  0  0  0  0  0  0  0  0  0
   -5.6708    1.3970   -1.5809 H   0  0  0  0  0  0  0  0  0  0  0  0
   -6.5954    2.3577    0.5601 H   0  0  0  0  0  0  0  0  0  0  0  0
   -7.7939    2.3305   -0.7069 H   0  0  0  0  0  0  0  0  0  0  0  0
   -9.2776    1.1282   -1.7585 H   0  0  0  0  0  0  0  0  0  0  0  0
  -10.9489   -0.1379   -3.0222 H   0  0  0  0  0  0  0  0  0  0  0  0
  -12.1616   -2.0283   -1.9676 H   0  0  0  0  0  0  0  0  0  0  0  0
  -11.6621   -2.6656    0.3790 H   0  0  0  0  0  0  0  0  0  0  0  0
   -9.9515   -1.4385    1.6562 H   0  0  0  0  0  0  0  0  0  0  0  0
   -2.2518   -0.4919    3.2869 H   0  0  0  0  0  0  0  0  0  0  0  0
    2.3852   -0.2830    1.9708 H   0  0  0  0  0  0  0  0  0  0  0  0
    4.6170   -0.9228    1.2462 H   0  0  0  0  0  0  0  0  0  0  0  0
  1  2  2  0
  2  3  1  0
  3  4  2  0
  4  5  1  0
  5  6  2  0
  6  7  1  0
  7  8  2  0
  8  9  1  0
  9 10  1  0
  9 11  2  0
  2 12  1  0
 12 13  1  0
 13 14  2  0
 14 15  1  0
 15 16  2  0
 16 17  1  0
 17 18  2  0
 17 19  1  0
 19 20  1  0
 20 21  2  0
 20 22  2  0
 20 23  1  0
 23 24  2  0
 24 25  1  0
 25 26  2  0
 26 27  1  0
 27 28  1  0
 28 29  1  0
 29 30  1  0
 30 31  1  0
 31 32  2  0
 32 33  1  0
 33 34  2  0
 34 35  1  0
 35 36  2  0
 26 37  1  0
 37 38  1  0
 38 39  2  0
 38 40  1  0
 37 41  2  0
 16 42  1  0
 42 43  2  0
 11  5  1  0
 43 13  1  0
 41 23  1  0
 36 31  1  0
  3 44  1  0
  4 45  1  0
  6 46  1  0
  7 47  1  0
  8 48  1  0
 11 49  1  0
 12 50  1  0
 14 51  1  0
 15 52  1  0
 19 53  1  0
 24 54  1  0
 25 55  1  0
 27 56  1  0
 28 57  1  0
 28 58  1  0
 29 59  1  0
 29 60  1  0
 32 61  1  0
 33 62  1  0
 34 63  1  0
 35 64  1  0
 36 65  1  0
 41 66  1  0
 42 67  1  0
 43 68  1  0
M  CHG  2  38   1  40  -1
M  END
$$$$
