MXD014
     RDKit          3D

 53 56  0  0  0  0  0  0  0  0999 V2000
   -3.2913   -2.7966   -0.3301 O   0  0  0  0  0  0  0  0  0  0  0  0
   -2.6679   -1.7923   -0.0291 C   0  0  0  0  0  0  0  0  0  0  0  0
   -1.2690   -1.6985   -0.0685 N   0  0  0  0  0  0  0  0  0  0  0  0
   -0.3063   -2.9731   -0.5573 S   0  0  0  0  0  0  0  0  0  0  0  0
   -0.5526   -3.2405   -1.9562 O   0  0  0  0  0  0  0  0  0  0  0  0
   -0.3372   -4.0023    0.4574 O   0  0  0  0  0  0  0  0  0  0  0  0
    1.2977   -2.1984   -0.4609 C   0  0  0  0  0  0  0  0  0  0  0  0
    1.7897   -1.4928   -1.5601 C   0  0  0  0  0  0  0  0  0  0  0  0
    3.0425   -0.8840   -1.4725 C   0  0  0  0  0  0  0  0  0  0  0  0
    3.8088   -0.9860   -0.3057 C   0  0  0  0  0  0  0  0  0  0  0  0
    5.0120   -0.3404   -0.3618 O   0  0  0  0  0  0  0  0  0  0  0  0
    5.8906   -0.4975    0.7504 C   0  0  0  0  0  0  0  0  0  0  0  0
    7.1784    0.2238    0.4387 C   0  0  0  0  0  0  0  0  0  0  0  0
    7.4583    1.4734    1.0090 C   0  0  0  0  0  0  0  0  0  0  0  0
    8.6499    2.1365    0.7097 C   0  0  0  0  0  0  0  0  0  0  0  0
    9.5689    1.5612   -0.1662 C   0  0  0  0  0  0  0  0  0  0  0  0
    9.2961    0.3248   -0.7481 C   0  0  0  0  0  0  0  0  0  0  0  0
    8.1056   -0.3399   -0.4502 C   0  0  0  0  0  0  0  0  0  0  0  0
    3.3112   -1.7054    0.7836 C   0  0  0  0  0  0  0  0  0  0  0  0
    2.0551   -2.3162    0.7075 C   0  0  0  0  0  0  0  0  0  0  0  0
   -3.3807   -0.5578    0.4037 C   0  0  0  0  0  0  0  0  0  0  0  0
   -2.7734    0.4272    1.1915 C   0  0  0  0  0  0  0  0  0  0  0  0
   -3.4893    1.5695    1.5485 C   0  0  0  0  0  0  0  0  0  0  0  0
   -4.8106    1.7313    1.1244 C   0  0  0  0  0  0  0  0  0  0  0  0
   -5.4480    0.7546    0.3420 C   0  0  0  0  0  0  0  0  0  0  0  0
   -6.8436    0.9249   -0.0962 C   0  0  0  0  0  0  0  0  0  0  0  0
   -7.8607    1.2209    0.8271 C   0  0  0  0  0  0  0  0  0  0  0  0
   -9.1828    1.3835    0.4065 C   0  0  0  0  0  0  0  0  0  0  0  0
  -10.4040    1.7463    1.5637 Cl  0  0  0  0  0  0  0  0  0  0  0  0
   -9.5222    1.2561   -0.9359 C   0  0  0  0  0  0  0  0  0  0  0  0
   -8.5245    0.9625   -1.8589 C   0  0  0  0  0  0  0  0  0  0  0  0
   -8.9255    0.8066   -3.5253 Cl  0  0  0  0  0  0  0  0  0  0  0  0
   -7.1991    0.7969   -1.4497 C   0  0  0  0  0  0  0  0  0  0  0  0
   -4.7131   -0.3905   -0.0088 C   0  0  0  0  0  0  0  0  0  0  0  0
   -0.8037   -0.8012   -0.0140 H   0  0  0  0  0  0  0  0  0  0  0  0
    1.2172   -1.4187   -2.4823 H   0  0  0  0  0  0  0  0  0  0  0  0
    3.4351   -0.3328   -2.3251 H   0  0  0  0  0  0  0  0  0  0  0  0
    6.1125   -1.5579    0.9269 H   0  0  0  0  0  0  0  0  0  0  0  0
    5.4379   -0.0732    1.6551 H   0  0  0  0  0  0  0  0  0  0  0  0
    6.7483    1.9413    1.6869 H   0  0  0  0  0  0  0  0  0  0  0  0
    8.8598    3.1047    1.1567 H   0  0  0  0  0  0  0  0  0  0  0  0
   10.4949    2.0795   -0.4006 H   0  0  0  0  0  0  0  0  0  0  0  0
   10.0081   -0.1203   -1.4382 H   0  0  0  0  0  0  0  0  0  0  0  0
    7.8986   -1.2992   -0.9201 H   0  0  0  0  0  0  0  0  0  0  0  0
    3.8747   -1.8153    1.7048 H   0  0  0  0  0  0  0  0  0  0  0  0
    1.6812   -2.8844    1.5575 H   0  0  0  0  0  0  0  0  0  0  0  0
   -1.7616    0.3135    1.5689 H   0  0  0  0  0  0  0  0  0  0  0  0
   -3.0238    2.3355    2.1653 H   0  0  0  0  0  0  0  0  0  0  0  0
   -5.3436    2.6375    1.4099 H   0  0  0  0  0  0  0  0  0  0  0  0
   -7.6248    1.3130    1.8858 H   0  0  0  0  0  0  0  0  0  0  0  0
  -10.5514    1.3833   -1.2587 H   0  0  0  0  0  0  0  0  0  0  0  0
   -6.4371    0.5762   -2.1951 H   0  0  0  0  0  0  0  0  0  0  0  0
   -5.1850   -1.1723   -0.6053 H   0  0  0  0  0  0  0  0  0  0  0  0
  1  2  2  0
  2  3  1  0
  3  4  1  0
  4  5  2  0
  4  6  2  0
  4  7  1  0
  7  8  2  0
  8  9  1  0
  9 10  2  0
 10 11  1  0
 11 12  1  0
 12 13  1  0
 13 14  2  0
 14 15  1  0
 15 16  2  0
 16 17  1  0
 17 18  2  0
 10 19  1  0
 19 20  2  0
  2 21  1  0
 21 22  2  0
 22 23  1  0
 23 24  2  0
 24 25  1  0
 25 26  1  0
 26 27  2  0
 27 28  1  0
 28 29  1  0
 28 30  2  0
 30 31  1  0
 31 32  1  0
 31 33  2  0
 25 34  2  0
 20  7  1  0
 34 21  1  0
 18 13  1  0
 33 26  1  0
  3 35  1  0
  8 36  1  0
  9 37  1  0
 12 38  1  0
 12 39  1  0
 14 40  1  0
 15 41  1  0
 16 42  1  0
 17 43  1  0
 18 44  1  0
 19 45  1  0
 20 46  1  0
 22 47  1  0
 23 48  1  0
 24 49  1  0
 27 50  1  0
 30 51  1  0
 33 52  1  0
 34 53  1  0
M  END
$$$$
