MXD013
     RDKit          3D

 50 54  0  0  0  0  0  0  0  0999 V2000
    4.8026    1.8114    1.8502 C   0  0  0  0  0  0  0  0  0  0  0  0
    6.1473    1.3713    1.2947 C   0  0  0  0  0  0  0  0  0  0  0  0
    6.1498   -0.0285    0.6707 C   0  0  0  0  0  0  0  0  0  0  0  0
    5.3320   -0.1560   -0.6173 C   0  0  0  0  0  0  0  0  0  0  0  0
    3.9118   -0.2708   -0.3256 N   0  0  0  0  0  0  0  0  0  0  0  0
    2.9232   -0.3934   -1.2816 C   0  0  0  0  0  0  0  0  0  0  0  0
    1.6347   -0.6898   -1.1332 C   0  0  0  0  0  0  0  0  0  0  0  0
    1.1005   -0.6809   -2.4893 C   0  0  0  0  0  0  0  0  0  0  0  0
    1.9108   -0.4154   -3.4466 N   0  0  0  0  0  0  0  0  0  0  0  0
    3.1184   -0.2136   -2.7946 C   0  0  0  0  0  0  0  0  0  0  0  0
    4.1851    0.0495   -3.3273 O   0  0  0  0  0  0  0  0  0  0  0  0
   -0.3085   -1.0016   -2.3724 C   0  0  0  0  0  0  0  0  0  0  0  0
   -1.2864   -1.1334   -3.3327 C   0  0  0  0  0  0  0  0  0  0  0  0
   -2.5703   -1.4618   -2.8876 C   0  0  0  0  0  0  0  0  0  0  0  0
   -2.8429   -1.6455   -1.5111 C   0  0  0  0  0  0  0  0  0  0  0  0
   -1.8314   -1.5015   -0.5195 C   0  0  0  0  0  0  0  0  0  0  0  0
   -1.9168   -1.6370    0.8976 C   0  0  0  0  0  0  0  0  0  0  0  0
   -3.4457   -2.0421    1.7423 S   0  0  0  0  0  0  0  0  0  0  0  0
   -4.4281   -0.5766    1.4701 C   0  0  0  0  0  0  0  0  0  0  0  0
   -5.7542   -0.7221    1.0536 C   0  0  0  0  0  0  0  0  0  0  0  0
   -6.5558    0.4030    0.8323 C   0  0  0  0  0  0  0  0  0  0  0  0
   -6.0644    1.6874    1.0711 C   0  0  0  0  0  0  0  0  0  0  0  0
   -6.8274    2.8090    0.7319 N   0  0  0  0  0  0  0  0  0  0  0  0
   -4.7266    1.8314    1.4432 C   0  0  0  0  0  0  0  0  0  0  0  0
   -3.9201    0.7099    1.6674 C   0  0  0  0  0  0  0  0  0  0  0  0
   -0.7605   -1.4679    1.7041 C   0  0  0  0  0  0  0  0  0  0  0  0
    0.4876   -1.1466    1.1504 C   0  0  0  0  0  0  0  0  0  0  0  0
    0.5645   -1.0059   -0.2171 C   0  0  0  0  0  0  0  0  0  0  0  0
   -0.5672   -1.1804   -1.0149 C   0  0  0  0  0  0  0  0  0  0  0  0
    4.0807    2.0005    1.0510 H   0  0  0  0  0  0  0  0  0  0  0  0
    4.9175    2.7444    2.4117 H   0  0  0  0  0  0  0  0  0  0  0  0
    4.3884    1.0584    2.5278 H   0  0  0  0  0  0  0  0  0  0  0  0
    6.8755    1.3785    2.1150 H   0  0  0  0  0  0  0  0  0  0  0  0
    6.4961    2.1073    0.5609 H   0  0  0  0  0  0  0  0  0  0  0  0
    5.8209   -0.7674    1.4117 H   0  0  0  0  0  0  0  0  0  0  0  0
    7.1920   -0.2726    0.4282 H   0  0  0  0  0  0  0  0  0  0  0  0
    5.5269    0.7073   -1.2629 H   0  0  0  0  0  0  0  0  0  0  0  0
    5.6563   -1.0589   -1.1478 H   0  0  0  0  0  0  0  0  0  0  0  0
    3.6754   -0.6871    0.5695 H   0  0  0  0  0  0  0  0  0  0  0  0
   -1.0672   -0.9899   -4.3853 H   0  0  0  0  0  0  0  0  0  0  0  0
   -3.3769   -1.5776   -3.6095 H   0  0  0  0  0  0  0  0  0  0  0  0
   -3.8593   -1.9023   -1.2194 H   0  0  0  0  0  0  0  0  0  0  0  0
   -6.1741   -1.7103    0.8815 H   0  0  0  0  0  0  0  0  0  0  0  0
   -7.5720    0.2639    0.4728 H   0  0  0  0  0  0  0  0  0  0  0  0
   -7.8299    2.6570    0.7809 H   0  0  0  0  0  0  0  0  0  0  0  0
   -6.5436    3.6606    1.2062 H   0  0  0  0  0  0  0  0  0  0  0  0
   -4.2970    2.8221    1.5663 H   0  0  0  0  0  0  0  0  0  0  0  0
   -2.8925    0.8615    1.9858 H   0  0  0  0  0  0  0  0  0  0  0  0
   -0.8356   -1.5840    2.7849 H   0  0  0  0  0  0  0  0  0  0  0  0
    1.3563   -1.0135    1.7860 H   0  0  0  0  0  0  0  0  0  0  0  0
  1  2  1  0
  2  3  1  0
  3  4  1  0
  4  5  1  0
  5  6  1  0
  6  7  2  0
  7  8  1  0
  8  9  2  0
  9 10  1  0
 10 11  2  0
  8 12  1  0
 12 13  2  0
 13 14  1  0
 14 15  2  0
 15 16  1  0
 16 17  2  0
 17 18  1  0
 18 19  1  0
 19 20  2  0
 20 21  1  0
 21 22  2  0
 22 23  1  0
 22 24  1  0
 24 25  2  0
 17 26  1  0
 26 27  2  0
 27 28  1  0
 28 29  2  0
 10  6  1  0
 29 12  1  0
 28  7  1  0
 29 16  1  0
 25 19  1  0
  1 30  1  0
  1 31  1  0
  1 32  1  0
  2 33  1  0
  2 34  1  0
  3 35  1  0
  3 36  1  0
  4 37  1  0
  4 38  1  0
  5 39  1  0
 13 40  1  0
 14 41  1  0
 15 42  1  0
 20 43  1  0
 21 44  1  0
 23 45  1  0
 23 46  1  0
 24 47  1  0
 25 48  1  0
 26 49  1  0
 27 50  1  0
M  END
$$$$
