PUMVGUHHVKZTOZ-HJGJAMNPSA-N
     RDKit          3D

 29 33  0  0  0  0  0  0  0  0999 V2000
   -3.3800   32.8040  -28.2260 C   0  0  0  0  0  0  0  0  0  0  0  0
   -3.8940   31.9180  -29.2360 N   0  0  0  0  0  0  0  0  0  0  0  0
   -3.8810   30.5590  -29.2480 C   0  0  0  0  0  0  0  0  0  0  0  0
   -4.4960   30.2390  -30.4370 C   0  0  0  0  0  0  0  0  0  0  0  0
   -4.7600   28.9410  -30.9800 C   0  0  0  0  0  0  0  0  0  0  0  0
   -5.6090   28.7450  -32.0060 C   0  0  0  0  0  0  0  0  0  0  0  0
   -5.8120   27.4690  -32.4900 N   0  0  0  0  0  0  0  0  0  0  0  0
   -6.6040   27.0750  -33.5150 N   0  0  0  0  0  0  0  0  0  0  0  0
   -6.3800   25.7650  -33.6270 C   0  0  0  0  0  0  0  0  0  0  0  0
   -5.4740   25.2890  -32.6670 C   0  0  0  0  0  0  0  0  0  0  0  0
   -5.1470   26.4010  -31.9210 C   0  0  0  0  0  0  0  0  0  0  0  0
   -4.2880   26.6850  -30.8040 C   0  0  0  0  0  0  0  0  0  0  0  0
   -3.6010   25.6130  -30.1140 C   0  0  0  0  0  0  0  0  0  0  0  0
   -3.0670   24.4310  -30.6830 C   0  0  0  0  0  0  0  0  0  0  0  0
   -2.5040   23.6240  -29.7790 N   0  0  0  0  0  0  0  0  0  0  0  0
   -2.6180   24.3100  -28.6320 N   0  0  0  0  0  0  0  0  0  0  0  0
   -2.1760   23.7300  -27.3290 C   0  0  1  0  0  0  0  0  0  0  0  0
   -2.3700   22.2080  -27.3300 C   0  0  0  0  0  0  0  0  0  0  0  0
   -3.7590   21.8400  -27.6380 C   0  0  0  0  0  0  0  0  0  0  0  0
   -4.8680   21.6100  -27.8870 N   0  0  0  0  0  0  0  0  0  0  0  0
   -0.7340   24.2060  -26.9580 C   0  0  0  0  0  0  0  0  0  0  0  0
   -1.2290   24.5690  -25.5400 C   0  0  2  0  0  0  0  0  0  0  0  0
   -0.9440   23.5940  -24.5070 C   0  0  0  0  0  0  0  0  0  0  0  0
   -0.7310   22.7870  -23.7030 N   0  0  0  0  0  0  0  0  0  0  0  0
   -2.6730   24.5500  -26.0970 C   0  0  0  0  0  0  0  0  0  0  0  0
   -3.2660   25.5050  -28.7770 C   0  0  0  0  0  0  0  0  0  0  0  0
   -4.0850   27.8940  -30.3660 N   0  0  0  0  0  0  0  0  0  0  0  0
   -4.8520   31.3910  -31.0890 N   0  0  0  0  0  0  0  0  0  0  0  0
   -4.4760   32.4200  -30.3380 N   0  0  0  0  0  0  0  0  0  0  0  0
  1  2  1  0
  2  3  1  0
  3  4  2  0
  4  5  1  0
  5  6  2  0
  6  7  1  0
  7  8  1  0
  8  9  2  0
  9 10  1  0
 10 11  2  0
 11 12  1  0
 12 13  1  0
 13 14  1  0
 14 15  2  0
 15 16  1  0
 16 17  1  0
 17 18  1  6
 18 19  1  0
 19 20  3  0
 17 21  1  0
 21 22  1  0
 22 23  1  6
 23 24  3  0
 22 25  1  0
 16 26  1  0
 12 27  2  0
  4 28  1  0
 28 29  2  0
 29  2  1  0
 27  5  1  0
 11  7  1  0
 26 13  2  0
 25 17  1  0
M  END
$$$$
