
 OpenBabel08272602053D

 18 19  0  0  1  0  0  0  0  0999 V2000
   17.6260   29.4350  127.3830 C   0  0  0  0  0  0  0  0  0  0  0  0
   18.9930   30.1110  127.4890 C   0  0  2  0  0  0  0  0  0  0  0  0
   19.5200   30.1500  128.9390 C   0  0  0  0  0  0  0  0  0  0  0  0
   18.7760   30.7140  129.7930 O   0  0  0  0  0  0  0  0  0  0  0  0
   20.6400   29.5840  129.1130 O   0  0  0  0  0  0  0  0  0  0  0  0
   18.9730   31.5060  126.8850 C   0  0  0  0  0  0  0  0  0  0  0  0
   18.2380   32.5260  127.5000 C   0  0  0  0  0  0  0  0  0  0  0  0
   19.6830   31.8090  125.7150 C   0  0  0  0  0  0  0  0  0  0  0  0
   18.2200   33.8210  126.9660 C   0  0  0  0  0  0  0  0  0  0  0  0
   19.6630   33.1020  125.1910 C   0  0  0  0  0  0  0  0  0  0  0  0
   18.9350   34.1360  125.7980 C   0  0  0  0  0  0  0  0  0  0  0  0
   20.3630   33.3410  124.0690 F   0  0  0  0  0  0  0  0  0  0  0  0
   18.9100   35.5030  125.2470 C   0  0  0  0  0  0  0  0  0  0  0  0
   17.8200   35.9650  124.4900 C   0  0  0  0  0  0  0  0  0  0  0  0
   19.9830   36.3890  125.4550 C   0  0  0  0  0  0  0  0  0  0  0  0
   17.8020   37.2570  123.9590 C   0  0  0  0  0  0  0  0  0  0  0  0
   19.9670   37.6820  124.9250 C   0  0  0  0  0  0  0  0  0  0  0  0
   18.8770   38.1160  124.1760 C   0  0  0  0  0  0  0  0  0  0  0  0
  2  1  1  1  0  0  0
  2  3  1  0  0  0  0
  3  5  2  0  0  0  0
  3  4  1  0  0  0  0
  6  2  1  0  0  0  0
  6  7  1  0  0  0  0
  8  6  2  0  0  0  0
  9  7  2  0  0  0  0
 10  8  1  0  0  0  0
 10 11  2  0  0  0  0
 11  9  1  0  0  0  0
 12 10  1  0  0  0  0
 13 15  1  0  0  0  0
 13 11  1  0  0  0  0
 14 13  2  0  0  0  0
 16 18  2  0  0  0  0
 16 14  1  0  0  0  0
 17 15  2  0  0  0  0
 18 17  1  0  0  0  0
M  END
>  <minimizedAffinity>
-7.91086006

>  <CNNscore>
0.822667181

>  <CNNaffinity>
5.49476814

$$$$

 OpenBabel08272602053D

 18 19  0  0  1  0  0  0  0  0999 V2000
   17.6790   29.4580  127.3670 C   0  0  0  0  0  0  0  0  0  0  0  0
   19.0180   30.1840  127.4980 C   0  0  2  0  0  0  0  0  0  0  0  0
   19.5020   30.2660  128.9620 C   0  0  0  0  0  0  0  0  0  0  0  0
   18.7340   30.8580  129.7750 O   0  0  0  0  0  0  0  0  0  0  0  0
   20.6150   29.7030  129.1860 O   0  0  0  0  0  0  0  0  0  0  0  0
   18.9680   31.5660  126.8680 C   0  0  0  0  0  0  0  0  0  0  0  0
   18.1950   32.5760  127.4540 C   0  0  0  0  0  0  0  0  0  0  0  0
   19.6850   31.8680  125.7030 C   0  0  0  0  0  0  0  0  0  0  0  0
   18.1480   33.8590  126.8960 C   0  0  0  0  0  0  0  0  0  0  0  0
   19.6360   33.1500  125.1540 C   0  0  0  0  0  0  0  0  0  0  0  0
   18.8700   34.1740  125.7320 C   0  0  0  0  0  0  0  0  0  0  0  0
   20.3450   33.3880  124.0380 F   0  0  0  0  0  0  0  0  0  0  0  0
   18.8150   35.5290  125.1550 C   0  0  0  0  0  0  0  0  0  0  0  0
   19.8380   36.4630  125.3900 C   0  0  0  0  0  0  0  0  0  0  0  0
   17.7310   35.9330  124.3560 C   0  0  0  0  0  0  0  0  0  0  0  0
   19.7800   37.7520  124.8500 C   0  0  0  0  0  0  0  0  0  0  0  0
   17.6700   37.2210  123.8160 C   0  0  0  0  0  0  0  0  0  0  0  0
   18.6940   38.1310  124.0640 C   0  0  0  0  0  0  0  0  0  0  0  0
  2  1  1  1  0  0  0
  2  3  1  0  0  0  0
  3  5  2  0  0  0  0
  3  4  1  0  0  0  0
  6  7  1  0  0  0  0
  6  2  1  0  0  0  0
  8  6  2  0  0  0  0
  9  7  2  0  0  0  0
 10  8  1  0  0  0  0
 10 11  2  0  0  0  0
 11  9  1  0  0  0  0
 12 10  1  0  0  0  0
 13 14  1  0  0  0  0
 13 11  1  0  0  0  0
 15 13  2  0  0  0  0
 16 14  2  0  0  0  0
 17 18  2  0  0  0  0
 17 15  1  0  0  0  0
 18 16  1  0  0  0  0
M  END
>  <minimizedAffinity>
-7.92107344

>  <CNNscore>
0.814510107

>  <CNNaffinity>
5.43415403

$$$$

 OpenBabel08272602053D

 18 19  0  0  1  0  0  0  0  0999 V2000
   20.0850   30.1900  127.9480 C   0  0  0  0  0  0  0  0  0  0  0  0
   18.6720   30.7290  127.7200 C   0  0  2  0  0  0  0  0  0  0  0  0
   17.7900   29.7480  126.9190 C   0  0  0  0  0  0  0  0  0  0  0  0
   17.5260   30.0760  125.7260 O   0  0  0  0  0  0  0  0  0  0  0  0
   17.4490   28.7030  127.5490 O   0  0  0  0  0  0  0  0  0  0  0  0
   18.6970   32.0970  127.0580 C   0  0  0  0  0  0  0  0  0  0  0  0
   17.8180   33.0990  127.4870 C   0  0  0  0  0  0  0  0  0  0  0  0
   19.5870   32.3930  126.0180 C   0  0  0  0  0  0  0  0  0  0  0  0
   17.8360   34.3700  126.8980 C   0  0  0  0  0  0  0  0  0  0  0  0
   19.6020   33.6620  125.4380 C   0  0  0  0  0  0  0  0  0  0  0  0
   18.7310   34.6780  125.8600 C   0  0  0  0  0  0  0  0  0  0  0  0
   20.4780   33.8940  124.4460 F   0  0  0  0  0  0  0  0  0  0  0  0
   18.7430   36.0200  125.2500 C   0  0  0  0  0  0  0  0  0  0  0  0
   19.7130   36.9730  125.6030 C   0  0  0  0  0  0  0  0  0  0  0  0
   17.7770   36.3920  124.2980 C   0  0  0  0  0  0  0  0  0  0  0  0
   19.7170   38.2490  125.0310 C   0  0  0  0  0  0  0  0  0  0  0  0
   17.7790   37.6670  123.7250 C   0  0  0  0  0  0  0  0  0  0  0  0
   18.7490   38.5960  124.0930 C   0  0  0  0  0  0  0  0  0  0  0  0
  2  1  1  6  0  0  0
  3  5  1  0  0  0  0
  3  2  1  0  0  0  0
  4  3  2  0  0  0  0
  6  7  1  0  0  0  0
  6  2  1  0  0  0  0
  8  6  2  0  0  0  0
  9  7  2  0  0  0  0
 10 11  2  0  0  0  0
 10  8  1  0  0  0  0
 11  9  1  0  0  0  0
 12 10  1  0  0  0  0
 13 14  1  0  0  0  0
 13 11  1  0  0  0  0
 15 13  2  0  0  0  0
 16 14  2  0  0  0  0
 17 18  2  0  0  0  0
 17 15  1  0  0  0  0
 18 16  1  0  0  0  0
M  END
>  <minimizedAffinity>
-7.61464453

>  <CNNscore>
0.813574433

>  <CNNaffinity>
5.51042795

$$$$

 OpenBabel08272602053D

 18 19  0  0  1  0  0  0  0  0999 V2000
   17.6500   29.4990  127.4080 C   0  0  0  0  0  0  0  0  0  0  0  0
   18.9900   30.2190  127.5590 C   0  0  2  0  0  0  0  0  0  0  0  0
   19.4800   30.2490  129.0220 C   0  0  0  0  0  0  0  0  0  0  0  0
   18.7130   30.8060  129.8610 O   0  0  0  0  0  0  0  0  0  0  0  0
   20.5960   29.6840  129.2210 O   0  0  0  0  0  0  0  0  0  0  0  0
   18.9370   31.6230  126.9790 C   0  0  0  0  0  0  0  0  0  0  0  0
   19.7890   31.9790  125.9260 C   0  0  0  0  0  0  0  0  0  0  0  0
   18.0460   32.5870  127.4700 C   0  0  0  0  0  0  0  0  0  0  0  0
   19.7440   33.2640  125.3700 C   0  0  0  0  0  0  0  0  0  0  0  0
   18.0050   33.8640  126.9080 C   0  0  0  0  0  0  0  0  0  0  0  0
   18.8490   34.2340  125.8500 C   0  0  0  0  0  0  0  0  0  0  0  0
   17.1300   34.7490  127.4130 F   0  0  0  0  0  0  0  0  0  0  0  0
   18.8090   35.5820  125.2540 C   0  0  0  0  0  0  0  0  0  0  0  0
   19.8000   36.5350  125.5410 C   0  0  0  0  0  0  0  0  0  0  0  0
   17.7710   35.9600  124.3830 C   0  0  0  0  0  0  0  0  0  0  0  0
   19.7570   37.8160  124.9840 C   0  0  0  0  0  0  0  0  0  0  0  0
   17.7250   37.2400  123.8250 C   0  0  0  0  0  0  0  0  0  0  0  0
   18.7180   38.1690  124.1260 C   0  0  0  0  0  0  0  0  0  0  0  0
  2  1  1  1  0  0  0
  2  3  1  0  0  0  0
  3  5  2  0  0  0  0
  3  4  1  0  0  0  0
  6  8  1  0  0  0  0
  6  2  1  0  0  0  0
  7  6  2  0  0  0  0
  9 11  2  0  0  0  0
  9  7  1  0  0  0  0
 10 12  1  0  0  0  0
 10  8  2  0  0  0  0
 11 10  1  0  0  0  0
 13 14  1  0  0  0  0
 13 11  1  0  0  0  0
 15 13  2  0  0  0  0
 16 14  2  0  0  0  0
 17 18  2  0  0  0  0
 17 15  1  0  0  0  0
 18 16  1  0  0  0  0
M  END
>  <minimizedAffinity>
-7.90919352

>  <CNNscore>
0.674164295

>  <CNNaffinity>
5.16193151

$$$$

 OpenBabel08272602053D

 18 19  0  0  1  0  0  0  0  0999 V2000
   18.2810   38.5310  124.3450 C   0  0  0  0  0  0  0  0  0  0  0  0
   17.5260   37.2940  123.8610 C   0  0  2  0  0  0  0  0  0  0  0  0
   15.9950   37.4850  123.9030 C   0  0  0  0  0  0  0  0  0  0  0  0
   15.5400   38.1680  124.8670 O   0  0  0  0  0  0  0  0  0  0  0  0
   15.3650   36.9500  122.9430 O   0  0  0  0  0  0  0  0  0  0  0  0
   17.9360   36.0510  124.6340 C   0  0  0  0  0  0  0  0  0  0  0  0
   17.1650   35.6140  125.7190 C   0  0  0  0  0  0  0  0  0  0  0  0
   19.0770   35.3150  124.2890 C   0  0  0  0  0  0  0  0  0  0  0  0
   17.5200   34.4630  126.4340 C   0  0  0  0  0  0  0  0  0  0  0  0
   19.4220   34.1680  125.0040 C   0  0  0  0  0  0  0  0  0  0  0  0
   18.6580   33.7140  126.0900 C   0  0  0  0  0  0  0  0  0  0  0  0
   20.5240   33.4970  124.6300 F   0  0  0  0  0  0  0  0  0  0  0  0
   19.0190   32.5030  126.8490 C   0  0  0  0  0  0  0  0  0  0  0  0
   18.2710   32.0910  127.9640 C   0  0  0  0  0  0  0  0  0  0  0  0
   20.1310   31.7240  126.4830 C   0  0  0  0  0  0  0  0  0  0  0  0
   18.6200   30.9480  128.6890 C   0  0  0  0  0  0  0  0  0  0  0  0
   20.4830   30.5810  127.2060 C   0  0  0  0  0  0  0  0  0  0  0  0
   19.7280   30.1940  128.3100 C   0  0  0  0  0  0  0  0  0  0  0  0
  2  3  1  0  0  0  0
  2  1  1  1  0  0  0
  2  6  1  0  0  0  0
  3  4  1  0  0  0  0
  5  3  2  0  0  0  0
  6  7  1  0  0  0  0
  7  9  2  0  0  0  0
  8  6  2  0  0  0  0
  8 10  1  0  0  0  0
 10 11  2  0  0  0  0
 11  9  1  0  0  0  0
 11 13  1  0  0  0  0
 12 10  1  0  0  0  0
 13 14  1  0  0  0  0
 14 16  2  0  0  0  0
 15 13  2  0  0  0  0
 15 17  1  0  0  0  0
 17 18  2  0  0  0  0
 18 16  1  0  0  0  0
M  END
>  <minimizedAffinity>
-7.27436924

>  <CNNscore>
0.647476912

>  <CNNaffinity>
5.04484701

$$$$

 OpenBabel08272602053D

 18 19  0  0  1  0  0  0  0  0999 V2000
   18.5050   38.4470  124.1510 C   0  0  0  0  0  0  0  0  0  0  0  0
   17.5580   37.2900  123.8370 C   0  0  2  0  0  0  0  0  0  0  0  0
   16.0760   37.6670  124.0520 C   0  0  0  0  0  0  0  0  0  0  0  0
   15.2210   36.9490  123.4560 O   0  0  0  0  0  0  0  0  0  0  0  0
   15.8860   38.6490  124.8300 O   0  0  0  0  0  0  0  0  0  0  0  0
   17.9180   36.0430  124.6290 C   0  0  0  0  0  0  0  0  0  0  0  0
   19.0160   35.2630  124.2480 C   0  0  0  0  0  0  0  0  0  0  0  0
   17.1750   35.6460  125.7490 C   0  0  0  0  0  0  0  0  0  0  0  0
   19.3710   34.1200  124.9740 C   0  0  0  0  0  0  0  0  0  0  0  0
   17.5370   34.5070  126.4690 C   0  0  0  0  0  0  0  0  0  0  0  0
   18.6380   33.7180  126.1030 C   0  0  0  0  0  0  0  0  0  0  0  0
   16.7930   34.1710  127.5370 F   0  0  0  0  0  0  0  0  0  0  0  0
   19.0230   32.5130  126.8620 C   0  0  0  0  0  0  0  0  0  0  0  0
   20.1480   31.7540  126.5010 C   0  0  0  0  0  0  0  0  0  0  0  0
   18.2690   32.0820  127.9680 C   0  0  0  0  0  0  0  0  0  0  0  0
   20.5060   30.6060  127.2140 C   0  0  0  0  0  0  0  0  0  0  0  0
   18.6260   30.9350  128.6830 C   0  0  0  0  0  0  0  0  0  0  0  0
   19.7440   30.1960  128.3050 C   0  0  0  0  0  0  0  0  0  0  0  0
  2  3  1  0  0  0  0
  2  1  1  1  0  0  0
  2  6  1  0  0  0  0
  3  5  1  0  0  0  0
  4  3  2  0  0  0  0
  6  8  1  0  0  0  0
  7  6  2  0  0  0  0
  7  9  1  0  0  0  0
  8 10  2  0  0  0  0
  9 11  2  0  0  0  0
 10 12  1  0  0  0  0
 11 10  1  0  0  0  0
 11 13  1  0  0  0  0
 13 15  1  0  0  0  0
 14 13  2  0  0  0  0
 14 16  1  0  0  0  0
 15 17  2  0  0  0  0
 16 18  2  0  0  0  0
 18 17  1  0  0  0  0
M  END
>  <minimizedAffinity>
-7.385324

>  <CNNscore>
0.453549266

>  <CNNaffinity>
4.74567842

$$$$

 OpenBabel08272602053D

 18 19  0  0  1  0  0  0  0  0999 V2000
   20.2290   31.2730  128.0200 C   0  0  0  0  0  0  0  0  0  0  0  0
   18.7490   31.5220  127.7310 C   0  0  2  0  0  0  0  0  0  0  0  0
   18.0870   30.3400  126.9910 C   0  0  0  0  0  0  0  0  0  0  0  0
   17.9280   29.2770  127.6600 O   0  0  0  0  0  0  0  0  0  0  0  0
   17.7540   30.5820  125.7930 O   0  0  0  0  0  0  0  0  0  0  0  0
   18.5400   32.8200  126.9690 C   0  0  0  0  0  0  0  0  0  0  0  0
   19.4570   33.2110  125.9850 C   0  0  0  0  0  0  0  0  0  0  0  0
   17.4400   33.6500  127.2200 C   0  0  0  0  0  0  0  0  0  0  0  0
   19.2730   34.3960  125.2620 C   0  0  0  0  0  0  0  0  0  0  0  0
   17.2610   34.8280  126.4940 C   0  0  0  0  0  0  0  0  0  0  0  0
   18.1680   35.2310  125.5020 C   0  0  0  0  0  0  0  0  0  0  0  0
   16.1870   35.5860  126.7720 F   0  0  0  0  0  0  0  0  0  0  0  0
   17.9830   36.4750  124.7330 C   0  0  0  0  0  0  0  0  0  0  0  0
   16.9530   36.6010  123.7860 C   0  0  0  0  0  0  0  0  0  0  0  0
   18.8390   37.5750  124.9180 C   0  0  0  0  0  0  0  0  0  0  0  0
   16.7840   37.7770  123.0500 C   0  0  0  0  0  0  0  0  0  0  0  0
   18.6730   38.7530  124.1830 C   0  0  0  0  0  0  0  0  0  0  0  0
   17.6460   38.8530  123.2480 C   0  0  0  0  0  0  0  0  0  0  0  0
  2  1  1  6  0  0  0
  3  4  1  0  0  0  0
  3  2  1  0  0  0  0
  5  3  2  0  0  0  0
  6  8  1  0  0  0  0
  6  2  1  0  0  0  0
  7  6  2  0  0  0  0
  9 11  2  0  0  0  0
  9  7  1  0  0  0  0
 10 12  1  0  0  0  0
 10  8  2  0  0  0  0
 11 10  1  0  0  0  0
 13 15  1  0  0  0  0
 13 11  1  0  0  0  0
 14 13  2  0  0  0  0
 16 18  2  0  0  0  0
 16 14  1  0  0  0  0
 17 15  2  0  0  0  0
 18 17  1  0  0  0  0
M  END
>  <minimizedAffinity>
-7.50625277

>  <CNNscore>
0.427100867

>  <CNNaffinity>
4.91685772

$$$$

 OpenBabel08272602053D

 18 19  0  0  1  0  0  0  0  0999 V2000
   18.8100   40.6560  124.2670 C   0  0  0  0  0  0  0  0  0  0  0  0
   17.8510   39.5820  123.7530 C   0  0  2  0  0  0  0  0  0  0  0  0
   16.3750   39.9150  124.0600 C   0  0  0  0  0  0  0  0  0  0  0  0
   16.0500   39.9540  125.2820 O   0  0  0  0  0  0  0  0  0  0  0  0
   15.6580   40.1380  123.0390 O   0  0  0  0  0  0  0  0  0  0  0  0
   18.2150   38.2060  124.2880 C   0  0  0  0  0  0  0  0  0  0  0  0
   17.5750   37.0670  123.7850 C   0  0  0  0  0  0  0  0  0  0  0  0
   19.1900   38.0390  125.2810 C   0  0  0  0  0  0  0  0  0  0  0  0
   17.9080   35.7900  124.2560 C   0  0  0  0  0  0  0  0  0  0  0  0
   19.5180   36.7640  125.7420 C   0  0  0  0  0  0  0  0  0  0  0  0
   18.8890   35.6120  125.2460 C   0  0  0  0  0  0  0  0  0  0  0  0
   20.4620   36.6590  126.6930 F   0  0  0  0  0  0  0  0  0  0  0  0
   19.2330   34.2630  125.7310 C   0  0  0  0  0  0  0  0  0  0  0  0
   18.9270   33.8600  127.0410 C   0  0  0  0  0  0  0  0  0  0  0  0
   19.8860   33.3380  124.8980 C   0  0  0  0  0  0  0  0  0  0  0  0
   19.2620   32.5850  127.5040 C   0  0  0  0  0  0  0  0  0  0  0  0
   20.2230   32.0620  125.3580 C   0  0  0  0  0  0  0  0  0  0  0  0
   19.9120   31.6860  126.6620 C   0  0  0  0  0  0  0  0  0  0  0  0
  2  3  1  0  0  0  0
  2  1  1  1  0  0  0
  2  6  1  0  0  0  0
  3  4  1  0  0  0  0
  5  3  2  0  0  0  0
  6  8  1  0  0  0  0
  7  9  1  0  0  0  0
  7  6  2  0  0  0  0
  8 10  2  0  0  0  0
  9 11  2  0  0  0  0
 10 12  1  0  0  0  0
 11 13  1  0  0  0  0
 11 10  1  0  0  0  0
 13 14  1  0  0  0  0
 14 16  2  0  0  0  0
 15 17  1  0  0  0  0
 15 13  2  0  0  0  0
 17 18  2  0  0  0  0
 18 16  1  0  0  0  0
M  END
>  <minimizedAffinity>
-7.01433563

>  <CNNscore>
0.392692596

>  <CNNaffinity>
4.26710272

$$$$

 OpenBabel08272602053D

 18 19  0  0  1  0  0  0  0  0999 V2000
   20.7510   31.0260  126.5720 C   0  0  0  0  0  0  0  0  0  0  0  0
   19.7320   31.6620  127.5180 C   0  0  2  0  0  0  0  0  0  0  0  0
   18.7150   30.6360  128.0630 C   0  0  0  0  0  0  0  0  0  0  0  0
   18.6950   30.4770  129.3180 O   0  0  0  0  0  0  0  0  0  0  0  0
   17.9930   30.0840  127.1800 O   0  0  0  0  0  0  0  0  0  0  0  0
   19.0190   32.8340  126.8650 C   0  0  0  0  0  0  0  0  0  0  0  0
   17.8190   33.3130  127.4030 C   0  0  0  0  0  0  0  0  0  0  0  0
   19.5350   33.4630  125.7240 C   0  0  0  0  0  0  0  0  0  0  0  0
   17.1560   34.4010  126.8230 C   0  0  0  0  0  0  0  0  0  0  0  0
   18.8700   34.5490  125.1530 C   0  0  0  0  0  0  0  0  0  0  0  0
   17.6700   35.0440  125.6840 C   0  0  0  0  0  0  0  0  0  0  0  0
   19.4100   35.1190  124.0620 F   0  0  0  0  0  0  0  0  0  0  0  0
   16.9630   36.1910  125.0830 C   0  0  0  0  0  0  0  0  0  0  0  0
   16.0650   36.9670  125.8330 C   0  0  0  0  0  0  0  0  0  0  0  0
   17.1630   36.5400  123.7360 C   0  0  0  0  0  0  0  0  0  0  0  0
   15.3880   38.0480  125.2610 C   0  0  0  0  0  0  0  0  0  0  0  0
   16.4870   37.6200  123.1610 C   0  0  0  0  0  0  0  0  0  0  0  0
   15.5990   38.3730  123.9230 C   0  0  0  0  0  0  0  0  0  0  0  0
  2  1  1  6  0  0  0
  2  3  1  0  0  0  0
  3  4  1  0  0  0  0
  5  3  2  0  0  0  0
  6  7  1  0  0  0  0
  6  2  1  0  0  0  0
  8  6  2  0  0  0  0
  9  7  2  0  0  0  0
 10 11  2  0  0  0  0
 10  8  1  0  0  0  0
 11  9  1  0  0  0  0
 12 10  1  0  0  0  0
 13 11  1  0  0  0  0
 13 14  1  0  0  0  0
 15 13  2  0  0  0  0
 16 14  2  0  0  0  0
 17 15  1  0  0  0  0
 17 18  2  0  0  0  0
 18 16  1  0  0  0  0
M  END
>  <minimizedAffinity>
-7.13449478

>  <CNNscore>
0.374513775

>  <CNNaffinity>
4.83041525

$$$$
