
 OpenBabel08262613383D

 34 37  0  0  0  0  0  0  0  0999 V2000
   17.5140   39.4970  124.0620 C   0  0  0  0  0  0  0  0  0  0  0  0
   17.3870   38.1320  123.7750 C   0  0  0  0  0  0  0  0  0  0  0  0
   18.2530   37.2370  124.3870 C   0  0  0  0  0  0  0  0  0  0  0  0
   19.2520   37.6730  125.2610 C   0  0  0  0  0  0  0  0  0  0  0  0
   19.4130   39.0170  125.5420 C   0  0  0  0  0  0  0  0  0  0  0  0
   18.5430   39.9350  124.9320 C   0  0  0  0  0  0  0  0  0  0  0  0
   20.0630   36.5220  125.7650 C   0  0  0  0  0  0  0  0  0  0  0  0
   19.1310   35.3430  125.4550 C   0  0  0  0  0  0  0  0  0  0  0  0
   18.3010   35.7490  124.2260 C   0  0  0  0  0  0  0  0  0  0  0  0
   16.7050   40.4780  123.5450 O   0  0  0  0  0  0  0  0  0  0  0  0
   15.5020   40.0750  122.8910 C   0  0  0  0  0  0  0  0  0  0  0  0
   14.7530   39.1100  123.7850 C   0  0  0  0  0  0  0  0  0  0  0  0
   14.1540   37.9270  123.3020 C   0  0  0  0  0  0  0  0  0  0  0  0
   13.5200   37.0590  124.2090 C   0  0  0  0  0  0  0  0  0  0  0  0
   13.4610   37.3360  125.5850 C   0  0  0  0  0  0  0  0  0  0  0  0
   14.6630   39.4030  125.1560 C   0  0  0  0  0  0  0  0  0  0  0  0
   14.0310   38.5280  126.0420 C   0  0  0  0  0  0  0  0  0  0  0  0
   14.1980   37.5380  121.8490 C   0  0  0  0  0  0  0  0  0  0  0  0
   12.8260   36.3580  126.5510 C   0  0  0  0  0  0  0  0  0  0  0  0
   11.7060   35.8680  126.2160 O   0  0  0  0  0  0  0  0  0  0  0  0
   13.4690   36.0860  127.6150 O   0  0  0  0  0  0  0  0  0  0  0  0
   18.6660   41.3330  125.2580 N   0  0  0  0  0  0  0  0  0  0  0  0
   19.9320   42.0110  124.9050 C   0  0  0  0  0  0  0  0  0  0  0  0
   20.7180   42.5090  126.1240 C   0  0  0  0  0  0  0  0  0  0  0  0
   21.7380   43.5800  125.7420 C   0  0  0  0  0  0  0  0  0  0  0  0
   21.4290   41.3320  126.7960 C   0  0  0  0  0  0  0  0  0  0  0  0
   17.8270   41.8370  126.6620 S   0  0  0  0  0  0  0  0  0  0  0  0
   16.9520   40.7690  127.1150 O   0  0  0  0  0  0  0  0  0  0  0  0
   18.8030   42.3920  127.5840 O   0  0  0  0  0  0  0  0  0  0  0  0
   16.7710   43.2150  126.2110 C   0  0  0  0  0  0  0  0  0  0  0  0
   16.1260   43.9990  127.0620 N   0  0  0  0  0  0  0  0  0  0  0  0
   16.5420   43.5550  124.5480 S   0  0  0  0  0  0  0  0  0  0  0  0
   15.4690   44.9830  126.3490 C   0  0  0  0  0  0  0  0  0  0  0  0
   15.5760   44.9040  124.9750 C   0  0  0  0  0  0  0  0  0  0  0  0
  1  6  1  0  0  0  0
  2  1  2  0  0  0  0
  2  3  1  0  0  0  0
  3  4  2  0  0  0  0
  4  5  1  0  0  0  0
  4  7  1  0  0  0  0
  6 22  1  0  0  0  0
  6  5  2  0  0  0  0
  8  7  1  0  0  0  0
  9  3  1  0  0  0  0
  9  8  1  0  0  0  0
 10  1  1  0  0  0  0
 11 10  1  0  0  0  0
 11 12  1  0  0  0  0
 12 16  1  0  0  0  0
 13 12  2  0  0  0  0
 13 14  1  0  0  0  0
 14 15  2  0  0  0  0
 15 17  1  0  0  0  0
 15 19  1  0  0  0  0
 16 17  2  0  0  0  0
 18 13  1  0  0  0  0
 19 21  1  0  0  0  0
 20 19  2  0  0  0  0
 22 27  1  0  0  0  0
 23 22  1  0  0  0  0
 23 24  1  0  0  0  0
 24 26  1  0  0  0  0
 25 24  1  0  0  0  0
 27 28  2  0  0  0  0
 27 29  2  0  0  0  0
 30 27  1  0  0  0  0
 30 31  2  0  0  0  0
 32 34  1  0  0  0  0
 32 30  1  0  0  0  0
 33 31  1  0  0  0  0
 34 33  2  0  0  0  0
M  END
>  <minimizedAffinity>
-7.71561289

>  <CNNscore>
0.403886855

>  <CNNaffinity>
6.23788691

$$$$

 OpenBabel08262613383D

 34 37  0  0  0  0  0  0  0  0999 V2000
   18.4920   37.4800  124.8950 C   0  0  0  0  0  0  0  0  0  0  0  0
   19.5510   38.2760  125.3470 C   0  0  0  0  0  0  0  0  0  0  0  0
   19.2660   39.5200  125.8940 C   0  0  0  0  0  0  0  0  0  0  0  0
   17.9540   39.9920  125.9820 C   0  0  0  0  0  0  0  0  0  0  0  0
   16.8940   39.2340  125.5210 C   0  0  0  0  0  0  0  0  0  0  0  0
   17.1650   37.9740  124.9670 C   0  0  0  0  0  0  0  0  0  0  0  0
   17.9170   41.3610  126.5840 C   0  0  0  0  0  0  0  0  0  0  0  0
   19.2950   41.4280  127.2560 C   0  0  0  0  0  0  0  0  0  0  0  0
   20.2320   40.5300  126.4320 C   0  0  0  0  0  0  0  0  0  0  0  0
   18.6380   36.2240  124.3610 O   0  0  0  0  0  0  0  0  0  0  0  0
   19.8960   35.5700  124.5260 C   0  0  0  0  0  0  0  0  0  0  0  0
   19.7000   34.3280  125.3680 C   0  0  0  0  0  0  0  0  0  0  0  0
   20.0610   33.0380  124.9250 C   0  0  0  0  0  0  0  0  0  0  0  0
   19.8920   31.9420  125.7900 C   0  0  0  0  0  0  0  0  0  0  0  0
   19.3690   32.0930  127.0860 C   0  0  0  0  0  0  0  0  0  0  0  0
   19.1450   34.4720  126.6520 C   0  0  0  0  0  0  0  0  0  0  0  0
   18.9860   33.3720  127.4970 C   0  0  0  0  0  0  0  0  0  0  0  0
   20.6580   32.7910  123.5660 C   0  0  0  0  0  0  0  0  0  0  0  0
   19.2510   30.9070  128.0210 C   0  0  0  0  0  0  0  0  0  0  0  0
   20.0160   29.9220  127.7970 O   0  0  0  0  0  0  0  0  0  0  0  0
   18.4090   30.9940  128.9710 O   0  0  0  0  0  0  0  0  0  0  0  0
   16.0650   37.1530  124.5330 N   0  0  0  0  0  0  0  0  0  0  0  0
   15.9410   36.8810  123.0840 C   0  0  0  0  0  0  0  0  0  0  0  0
   16.1010   38.1310  122.2120 C   0  0  0  0  0  0  0  0  0  0  0  0
   16.0370   39.4120  123.0410 C   0  0  0  0  0  0  0  0  0  0  0  0
   15.0110   38.1530  121.1370 C   0  0  0  0  0  0  0  0  0  0  0  0
   14.6380   37.2790  125.4700 S   0  0  0  0  0  0  0  0  0  0  0  0
   13.9350   36.0060  125.4580 O   0  0  0  0  0  0  0  0  0  0  0  0
   14.9980   37.8770  126.7440 O   0  0  0  0  0  0  0  0  0  0  0  0
   13.5590   38.4730  124.6780 C   0  0  0  0  0  0  0  0  0  0  0  0
   13.5540   39.7770  124.9110 N   0  0  0  0  0  0  0  0  0  0  0  0
   12.4160   37.9060  123.5360 S   0  0  0  0  0  0  0  0  0  0  0  0
   12.6350   40.3760  124.0720 C   0  0  0  0  0  0  0  0  0  0  0  0
   11.9200   39.5220  123.2570 C   0  0  0  0  0  0  0  0  0  0  0  0
  1  6  2  0  0  0  0
  1  2  1  0  0  0  0
  2  3  2  0  0  0  0
  3  4  1  0  0  0  0
  3  9  1  0  0  0  0
  4  7  1  0  0  0  0
  5  4  2  0  0  0  0
  6  5  1  0  0  0  0
  7  8  1  0  0  0  0
  9  8  1  0  0  0  0
 10 11  1  0  0  0  0
 10  1  1  0  0  0  0
 11 12  1  0  0  0  0
 12 16  1  0  0  0  0
 13 12  2  0  0  0  0
 13 14  1  0  0  0  0
 14 15  2  0  0  0  0
 15 17  1  0  0  0  0
 15 19  1  0  0  0  0
 16 17  2  0  0  0  0
 18 13  1  0  0  0  0
 19 21  1  0  0  0  0
 20 19  2  0  0  0  0
 22  6  1  0  0  0  0
 22 27  1  0  0  0  0
 23 22  1  0  0  0  0
 24 25  1  0  0  0  0
 24 23  1  0  0  0  0
 26 24  1  0  0  0  0
 27 29  2  0  0  0  0
 28 27  2  0  0  0  0
 30 31  2  0  0  0  0
 30 27  1  0  0  0  0
 32 30  1  0  0  0  0
 33 31  1  0  0  0  0
 34 32  1  0  0  0  0
 34 33  2  0  0  0  0
M  END
>  <minimizedAffinity>
-8.88367653

>  <CNNscore>
0.285504967

>  <CNNaffinity>
6.68571281

$$$$

 OpenBabel08262613383D

 34 37  0  0  0  0  0  0  0  0999 V2000
   16.3940   38.5170  125.3540 C   0  0  0  0  0  0  0  0  0  0  0  0
   16.7890   37.1980  125.1020 C   0  0  0  0  0  0  0  0  0  0  0  0
   18.1220   36.9440  124.8100 C   0  0  0  0  0  0  0  0  0  0  0  0
   19.0620   37.9750  124.7440 C   0  0  0  0  0  0  0  0  0  0  0  0
   18.6910   39.2880  124.9650 C   0  0  0  0  0  0  0  0  0  0  0  0
   17.3480   39.5620  125.2650 C   0  0  0  0  0  0  0  0  0  0  0  0
   20.4150   37.4450  124.3880 C   0  0  0  0  0  0  0  0  0  0  0  0
   20.2460   35.9550  124.7170 C   0  0  0  0  0  0  0  0  0  0  0  0
   18.7600   35.6230  124.5060 C   0  0  0  0  0  0  0  0  0  0  0  0
   15.1160   38.8960  125.6810 O   0  0  0  0  0  0  0  0  0  0  0  0
   14.0360   38.2600  124.9970 C   0  0  0  0  0  0  0  0  0  0  0  0
   13.3910   39.2550  124.0570 C   0  0  0  0  0  0  0  0  0  0  0  0
   13.7270   39.3430  122.6890 C   0  0  0  0  0  0  0  0  0  0  0  0
   13.0440   40.2620  121.8730 C   0  0  0  0  0  0  0  0  0  0  0  0
   12.0360   41.1000  122.3790 C   0  0  0  0  0  0  0  0  0  0  0  0
   12.4070   40.1180  124.5690 C   0  0  0  0  0  0  0  0  0  0  0  0
   11.7390   41.0220  123.7420 C   0  0  0  0  0  0  0  0  0  0  0  0
   14.7710   38.4620  122.0580 C   0  0  0  0  0  0  0  0  0  0  0  0
   11.2740   42.0400  121.4680 C   0  0  0  0  0  0  0  0  0  0  0  0
   11.9580   42.7370  120.6620 O   0  0  0  0  0  0  0  0  0  0  0  0
   10.0050   42.0460  121.5670 O   0  0  0  0  0  0  0  0  0  0  0  0
   16.9610   40.9190  125.5500 N   0  0  0  0  0  0  0  0  0  0  0  0
   15.7050   41.4170  124.9460 C   0  0  0  0  0  0  0  0  0  0  0  0
   15.9250   42.5100  123.8940 C   0  0  0  0  0  0  0  0  0  0  0  0
   14.6760   43.3650  123.6950 C   0  0  0  0  0  0  0  0  0  0  0  0
   16.3350   41.8710  122.5640 C   0  0  0  0  0  0  0  0  0  0  0  0
   18.2510   42.0190  125.7840 S   0  0  0  0  0  0  0  0  0  0  0  0
   19.1350   41.9840  124.6300 O   0  0  0  0  0  0  0  0  0  0  0  0
   17.6800   43.2880  126.2010 O   0  0  0  0  0  0  0  0  0  0  0  0
   19.2120   41.4530  127.1890 C   0  0  0  0  0  0  0  0  0  0  0  0
   18.7180   40.8940  128.2840 N   0  0  0  0  0  0  0  0  0  0  0  0
   20.9120   41.6580  127.1490 S   0  0  0  0  0  0  0  0  0  0  0  0
   19.7640   40.5350  129.1110 C   0  0  0  0  0  0  0  0  0  0  0  0
   21.0260   40.8710  128.6650 C   0  0  0  0  0  0  0  0  0  0  0  0
  1 10  1  0  0  0  0
  2  1  2  0  0  0  0
  3  2  1  0  0  0  0
  4  3  2  0  0  0  0
  4  5  1  0  0  0  0
  5  6  2  0  0  0  0
  6  1  1  0  0  0  0
  6 22  1  0  0  0  0
  7  8  1  0  0  0  0
  7  4  1  0  0  0  0
  9  8  1  0  0  0  0
  9  3  1  0  0  0  0
 11 10  1  0  0  0  0
 12 16  1  0  0  0  0
 12 11  1  0  0  0  0
 13 12  2  0  0  0  0
 14 15  2  0  0  0  0
 14 13  1  0  0  0  0
 15 17  1  0  0  0  0
 17 16  2  0  0  0  0
 18 13  1  0  0  0  0
 19 21  1  0  0  0  0
 19 15  1  0  0  0  0
 20 19  2  0  0  0  0
 22 27  1  0  0  0  0
 23 22  1  0  0  0  0
 24 23  1  0  0  0  0
 25 24  1  0  0  0  0
 26 24  1  0  0  0  0
 27 29  2  0  0  0  0
 27 30  1  0  0  0  0
 28 27  2  0  0  0  0
 30 31  2  0  0  0  0
 31 33  1  0  0  0  0
 32 30  1  0  0  0  0
 32 34  1  0  0  0  0
 34 33  2  0  0  0  0
M  END
>  <minimizedAffinity>
-7.96134329

>  <CNNscore>
0.139157131

>  <CNNaffinity>
5.78907776

$$$$

 OpenBabel08262613383D

 34 37  0  0  0  0  0  0  0  0999 V2000
   17.0960   36.7210  125.4690 C   0  0  0  0  0  0  0  0  0  0  0  0
   16.1150   35.7490  125.6980 C   0  0  0  0  0  0  0  0  0  0  0  0
   14.8300   36.1610  126.0260 C   0  0  0  0  0  0  0  0  0  0  0  0
   14.5100   37.5140  126.1480 C   0  0  0  0  0  0  0  0  0  0  0  0
   15.4670   38.4920  125.9500 C   0  0  0  0  0  0  0  0  0  0  0  0
   16.7700   38.0920  125.6160 C   0  0  0  0  0  0  0  0  0  0  0  0
   13.0750   37.6920  126.5320 C   0  0  0  0  0  0  0  0  0  0  0  0
   12.4950   36.3210  126.1600 C   0  0  0  0  0  0  0  0  0  0  0  0
   13.6370   35.3040  126.3140 C   0  0  0  0  0  0  0  0  0  0  0  0
   18.3930   36.4460  125.1130 O   0  0  0  0  0  0  0  0  0  0  0  0
   18.6390   35.2690  124.3420 C   0  0  0  0  0  0  0  0  0  0  0  0
   18.9630   34.1250  125.2780 C   0  0  0  0  0  0  0  0  0  0  0  0
   19.7200   33.0030  124.8810 C   0  0  0  0  0  0  0  0  0  0  0  0
   20.0190   32.0060  125.8270 C   0  0  0  0  0  0  0  0  0  0  0  0
   19.5820   32.0920  127.1600 C   0  0  0  0  0  0  0  0  0  0  0  0
   18.4970   34.1920  126.6020 C   0  0  0  0  0  0  0  0  0  0  0  0
   18.8050   33.1940  127.5280 C   0  0  0  0  0  0  0  0  0  0  0  0
   20.2540   32.8460  123.4830 C   0  0  0  0  0  0  0  0  0  0  0  0
   19.9660   31.0370  128.1760 C   0  0  0  0  0  0  0  0  0  0  0  0
   20.3490   29.9180  127.7220 O   0  0  0  0  0  0  0  0  0  0  0  0
   19.8940   31.3560  129.4060 O   0  0  0  0  0  0  0  0  0  0  0  0
   17.7630   39.1020  125.3550 N   0  0  0  0  0  0  0  0  0  0  0  0
   17.5410   40.0010  124.2010 C   0  0  0  0  0  0  0  0  0  0  0  0
   16.8250   39.3230  123.0270 C   0  0  0  0  0  0  0  0  0  0  0  0
   15.3070   39.4160  123.1590 C   0  0  0  0  0  0  0  0  0  0  0  0
   17.2500   37.8540  122.9420 C   0  0  0  0  0  0  0  0  0  0  0  0
   19.3680   38.6810  125.7720 S   0  0  0  0  0  0  0  0  0  0  0  0
   19.3500   37.6110  126.7550 O   0  0  0  0  0  0  0  0  0  0  0  0
   20.1110   38.4950  124.5370 O   0  0  0  0  0  0  0  0  0  0  0  0
   20.1250   40.1000  126.5660 C   0  0  0  0  0  0  0  0  0  0  0  0
   20.5910   41.1720  125.9420 N   0  0  0  0  0  0  0  0  0  0  0  0
   20.2920   40.0870  128.2700 S   0  0  0  0  0  0  0  0  0  0  0  0
   21.0390   42.0760  126.8850 C   0  0  0  0  0  0  0  0  0  0  0  0
   20.9600   41.6630  128.1990 C   0  0  0  0  0  0  0  0  0  0  0  0
  1  6  2  0  0  0  0
  1  2  1  0  0  0  0
  2  3  2  0  0  0  0
  3  4  1  0  0  0  0
  3  9  1  0  0  0  0
  4  7  1  0  0  0  0
  5  4  2  0  0  0  0
  6  5  1  0  0  0  0
  8  9  1  0  0  0  0
  8  7  1  0  0  0  0
 10  1  1  0  0  0  0
 11 10  1  0  0  0  0
 11 12  1  0  0  0  0
 12 16  1  0  0  0  0
 13 12  2  0  0  0  0
 13 14  1  0  0  0  0
 14 15  2  0  0  0  0
 15 17  1  0  0  0  0
 15 19  1  0  0  0  0
 16 17  2  0  0  0  0
 18 13  1  0  0  0  0
 19 21  1  0  0  0  0
 20 19  2  0  0  0  0
 22  6  1  0  0  0  0
 22 27  1  0  0  0  0
 23 22  1  0  0  0  0
 24 25  1  0  0  0  0
 24 23  1  0  0  0  0
 26 24  1  0  0  0  0
 27 30  1  0  0  0  0
 27 28  2  0  0  0  0
 29 27  2  0  0  0  0
 30 32  1  0  0  0  0
 31 30  2  0  0  0  0
 31 33  1  0  0  0  0
 33 34  2  0  0  0  0
 34 32  1  0  0  0  0
M  END
>  <minimizedAffinity>
-8.43932343

>  <CNNscore>
0.126220241

>  <CNNaffinity>
6.26878786

$$$$

 OpenBabel08262613383D

 34 37  0  0  0  0  0  0  0  0999 V2000
   16.7900   37.0860  124.6590 C   0  0  0  0  0  0  0  0  0  0  0  0
   15.6190   37.8470  124.5640 C   0  0  0  0  0  0  0  0  0  0  0  0
   14.5350   37.5080  125.3610 C   0  0  0  0  0  0  0  0  0  0  0  0
   14.5870   36.4190  126.2340 C   0  0  0  0  0  0  0  0  0  0  0  0
   15.7230   35.6380  126.3280 C   0  0  0  0  0  0  0  0  0  0  0  0
   16.8290   35.9690  125.5300 C   0  0  0  0  0  0  0  0  0  0  0  0
   13.2880   36.2500  126.9570 C   0  0  0  0  0  0  0  0  0  0  0  0
   12.6520   37.6310  126.7530 C   0  0  0  0  0  0  0  0  0  0  0  0
   13.1950   38.1730  125.4210 C   0  0  0  0  0  0  0  0  0  0  0  0
   17.9380   37.3340  123.9470 O   0  0  0  0  0  0  0  0  0  0  0  0
   18.1820   38.6740  123.5200 C   0  0  0  0  0  0  0  0  0  0  0  0
   18.4560   39.5360  124.7340 C   0  0  0  0  0  0  0  0  0  0  0  0
   17.7050   40.6920  125.0360 C   0  0  0  0  0  0  0  0  0  0  0  0
   17.9920   41.4090  126.2120 C   0  0  0  0  0  0  0  0  0  0  0  0
   19.0110   41.0110  127.0950 C   0  0  0  0  0  0  0  0  0  0  0  0
   19.4960   39.1590  125.6000 C   0  0  0  0  0  0  0  0  0  0  0  0
   19.7660   39.8830  126.7630 C   0  0  0  0  0  0  0  0  0  0  0  0
   16.5770   41.1710  124.1630 C   0  0  0  0  0  0  0  0  0  0  0  0
   19.2620   41.7650  128.3840 C   0  0  0  0  0  0  0  0  0  0  0  0
   20.3790   42.3520  128.4960 O   0  0  0  0  0  0  0  0  0  0  0  0
   18.3300   41.7680  129.2500 O   0  0  0  0  0  0  0  0  0  0  0  0
   18.0370   35.1950  125.6580 N   0  0  0  0  0  0  0  0  0  0  0  0
   18.5320   34.4890  124.4570 C   0  0  0  0  0  0  0  0  0  0  0  0
   20.0050   34.7750  124.1440 C   0  0  0  0  0  0  0  0  0  0  0  0
   20.8790   33.5400  124.3490 C   0  0  0  0  0  0  0  0  0  0  0  0
   20.5080   35.9200  125.0270 C   0  0  0  0  0  0  0  0  0  0  0  0
   18.2950   34.4840  127.1940 S   0  0  0  0  0  0  0  0  0  0  0  0
   19.4970   35.0420  127.7920 O   0  0  0  0  0  0  0  0  0  0  0  0
   17.0430   34.5500  127.9270 O   0  0  0  0  0  0  0  0  0  0  0  0
   18.6050   32.7350  126.9490 C   0  0  0  0  0  0  0  0  0  0  0  0
   17.9670   31.9540  126.0880 N   0  0  0  0  0  0  0  0  0  0  0  0
   19.8040   31.9770  127.9080 S   0  0  0  0  0  0  0  0  0  0  0  0
   18.5210   30.6900  126.1390 C   0  0  0  0  0  0  0  0  0  0  0  0
   19.5260   30.5110  127.0670 C   0  0  0  0  0  0  0  0  0  0  0  0
  1  6  1  0  0  0  0
  2  1  2  0  0  0  0
  2  3  1  0  0  0  0
  3  9  1  0  0  0  0
  3  4  2  0  0  0  0
  4  5  1  0  0  0  0
  4  7  1  0  0  0  0
  6 22  1  0  0  0  0
  6  5  2  0  0  0  0
  8  7  1  0  0  0  0
  9  8  1  0  0  0  0
 10  1  1  0  0  0  0
 11 10  1  0  0  0  0
 11 12  1  0  0  0  0
 12 13  2  0  0  0  0
 12 16  1  0  0  0  0
 13 14  1  0  0  0  0
 14 15  2  0  0  0  0
 15 19  1  0  0  0  0
 16 17  2  0  0  0  0
 17 15  1  0  0  0  0
 18 13  1  0  0  0  0
 19 20  2  0  0  0  0
 19 21  1  0  0  0  0
 22 27  1  0  0  0  0
 23 22  1  0  0  0  0
 24 25  1  0  0  0  0
 24 23  1  0  0  0  0
 24 26  1  0  0  0  0
 27 28  2  0  0  0  0
 27 29  2  0  0  0  0
 30 27  1  0  0  0  0
 30 32  1  0  0  0  0
 31 33  1  0  0  0  0
 31 30  2  0  0  0  0
 33 34  2  0  0  0  0
 34 32  1  0  0  0  0
M  END
>  <minimizedAffinity>
-8.99737644

>  <CNNscore>
0.118226618

>  <CNNaffinity>
5.88548422

$$$$

 OpenBabel08262613383D

 34 37  0  0  0  0  0  0  0  0999 V2000
   17.0000   37.4840  125.2850 C   0  0  0  0  0  0  0  0  0  0  0  0
   15.8230   38.2370  125.1890 C   0  0  0  0  0  0  0  0  0  0  0  0
   14.6070   37.6100  125.4270 C   0  0  0  0  0  0  0  0  0  0  0  0
   14.5380   36.2500  125.7380 C   0  0  0  0  0  0  0  0  0  0  0  0
   15.6840   35.4810  125.8150 C   0  0  0  0  0  0  0  0  0  0  0  0
   16.9220   36.0990  125.5790 C   0  0  0  0  0  0  0  0  0  0  0  0
   13.1200   35.8140  125.9220 C   0  0  0  0  0  0  0  0  0  0  0  0
   12.4210   37.1620  126.1440 C   0  0  0  0  0  0  0  0  0  0  0  0
   13.2380   38.2140  125.3770 C   0  0  0  0  0  0  0  0  0  0  0  0
   18.2620   37.9900  125.1010 O   0  0  0  0  0  0  0  0  0  0  0  0
   18.3990   39.1760  124.3180 C   0  0  0  0  0  0  0  0  0  0  0  0
   17.9230   40.3610  125.1300 C   0  0  0  0  0  0  0  0  0  0  0  0
   18.5580   40.7780  126.3190 C   0  0  0  0  0  0  0  0  0  0  0  0
   18.0820   41.9210  126.9870 C   0  0  0  0  0  0  0  0  0  0  0  0
   16.9880   42.6610  126.5060 C   0  0  0  0  0  0  0  0  0  0  0  0
   16.8080   41.0810  124.6700 C   0  0  0  0  0  0  0  0  0  0  0  0
   16.3510   42.2150  125.3450 C   0  0  0  0  0  0  0  0  0  0  0  0
   19.7540   40.0630  126.8860 C   0  0  0  0  0  0  0  0  0  0  0  0
   16.5310   43.9220  127.2090 C   0  0  0  0  0  0  0  0  0  0  0  0
   16.2650   44.9210  126.4780 O   0  0  0  0  0  0  0  0  0  0  0  0
   16.4320   43.8800  128.4770 O   0  0  0  0  0  0  0  0  0  0  0  0
   18.1260   35.3200  125.7090 N   0  0  0  0  0  0  0  0  0  0  0  0
   18.6520   34.6610  124.4940 C   0  0  0  0  0  0  0  0  0  0  0  0
   20.1260   34.9770  124.2180 C   0  0  0  0  0  0  0  0  0  0  0  0
   21.0210   33.7640  124.4590 C   0  0  0  0  0  0  0  0  0  0  0  0
   20.5790   36.1410  125.1030 C   0  0  0  0  0  0  0  0  0  0  0  0
   18.3430   34.5490  127.2210 S   0  0  0  0  0  0  0  0  0  0  0  0
   19.5450   35.0610  127.8600 O   0  0  0  0  0  0  0  0  0  0  0  0
   17.0800   34.6130  127.9360 O   0  0  0  0  0  0  0  0  0  0  0  0
   18.6230   32.8030  126.9170 C   0  0  0  0  0  0  0  0  0  0  0  0
   18.0000   32.0730  126.0040 N   0  0  0  0  0  0  0  0  0  0  0  0
   19.7700   31.9810  127.8870 S   0  0  0  0  0  0  0  0  0  0  0  0
   18.5230   30.7950  126.0240 C   0  0  0  0  0  0  0  0  0  0  0  0
   19.4900   30.5560  126.9790 C   0  0  0  0  0  0  0  0  0  0  0  0
  1  6  1  0  0  0  0
  2  1  2  0  0  0  0
  2  3  1  0  0  0  0
  3  4  2  0  0  0  0
  4  5  1  0  0  0  0
  4  7  1  0  0  0  0
  6 22  1  0  0  0  0
  6  5  2  0  0  0  0
  7  8  1  0  0  0  0
  9  3  1  0  0  0  0
  9  8  1  0  0  0  0
 10  1  1  0  0  0  0
 11 10  1  0  0  0  0
 11 12  1  0  0  0  0
 12 13  1  0  0  0  0
 13 18  1  0  0  0  0
 13 14  2  0  0  0  0
 15 14  1  0  0  0  0
 15 19  1  0  0  0  0
 16 12  2  0  0  0  0
 16 17  1  0  0  0  0
 17 15  2  0  0  0  0
 19 21  1  0  0  0  0
 20 19  2  0  0  0  0
 22 27  1  0  0  0  0
 23 22  1  0  0  0  0
 24 25  1  0  0  0  0
 24 23  1  0  0  0  0
 24 26  1  0  0  0  0
 27 28  2  0  0  0  0
 27 29  2  0  0  0  0
 30 27  1  0  0  0  0
 30 32  1  0  0  0  0
 31 33  1  0  0  0  0
 31 30  2  0  0  0  0
 33 34  2  0  0  0  0
 34 32  1  0  0  0  0
M  END
>  <minimizedAffinity>
-8.64591694

>  <CNNscore>
0.103162088

>  <CNNaffinity>
5.61297464

$$$$

 OpenBabel08262613383D

 34 37  0  0  0  0  0  0  0  0999 V2000
   16.9920   35.1750  126.5890 C   0  0  0  0  0  0  0  0  0  0  0  0
   16.8660   33.9940  127.3280 C   0  0  0  0  0  0  0  0  0  0  0  0
   17.8890   33.0570  127.2710 C   0  0  0  0  0  0  0  0  0  0  0  0
   19.0220   33.2640  126.4810 C   0  0  0  0  0  0  0  0  0  0  0  0
   19.1580   34.4120  125.7230 C   0  0  0  0  0  0  0  0  0  0  0  0
   18.1340   35.3700  125.7710 C   0  0  0  0  0  0  0  0  0  0  0  0
   19.9590   32.1020  126.5720 C   0  0  0  0  0  0  0  0  0  0  0  0
   19.4640   31.4220  127.8560 C   0  0  0  0  0  0  0  0  0  0  0  0
   17.9640   31.7340  127.9700 C   0  0  0  0  0  0  0  0  0  0  0  0
   16.0670   36.1890  126.5810 O   0  0  0  0  0  0  0  0  0  0  0  0
   14.6850   35.8320  126.5380 C   0  0  0  0  0  0  0  0  0  0  0  0
   13.9440   36.8290  125.6750 C   0  0  0  0  0  0  0  0  0  0  0  0
   14.1970   38.2170  125.7190 C   0  0  0  0  0  0  0  0  0  0  0  0
   13.4980   39.0700  124.8460 C   0  0  0  0  0  0  0  0  0  0  0  0
   12.5490   38.5830  123.9310 C   0  0  0  0  0  0  0  0  0  0  0  0
   12.9690   36.3480  124.7830 C   0  0  0  0  0  0  0  0  0  0  0  0
   12.2870   37.2100  123.9240 C   0  0  0  0  0  0  0  0  0  0  0  0
   15.2190   38.8190  126.6440 C   0  0  0  0  0  0  0  0  0  0  0  0
   11.8530   39.5140  122.9610 C   0  0  0  0  0  0  0  0  0  0  0  0
   11.0740   40.3810  123.4580 O   0  0  0  0  0  0  0  0  0  0  0  0
   12.1130   39.3690  121.7240 O   0  0  0  0  0  0  0  0  0  0  0  0
   18.2890   36.5940  125.0280 N   0  0  0  0  0  0  0  0  0  0  0  0
   17.7970   36.6180  123.6330 C   0  0  0  0  0  0  0  0  0  0  0  0
   16.7120   37.6720  123.3860 C   0  0  0  0  0  0  0  0  0  0  0  0
   15.6330   37.1630  122.4340 C   0  0  0  0  0  0  0  0  0  0  0  0
   17.3480   38.9440  122.8180 C   0  0  0  0  0  0  0  0  0  0  0  0
   19.6660   37.5290  125.4300 S   0  0  0  0  0  0  0  0  0  0  0  0
   20.3040   36.9710  126.6110 O   0  0  0  0  0  0  0  0  0  0  0  0
   20.4490   37.7050  124.2190 O   0  0  0  0  0  0  0  0  0  0  0  0
   19.1070   39.1750  125.8720 C   0  0  0  0  0  0  0  0  0  0  0  0
   17.8780   39.6400  125.7040 N   0  0  0  0  0  0  0  0  0  0  0  0
   20.2410   40.2640  126.5510 S   0  0  0  0  0  0  0  0  0  0  0  0
   17.8130   40.9200  126.2190 C   0  0  0  0  0  0  0  0  0  0  0  0
   18.9950   41.4280  126.7190 C   0  0  0  0  0  0  0  0  0  0  0  0
  1  2  1  0  0  0  0
  3  2  2  0  0  0  0
  3  9  1  0  0  0  0
  4  7  1  0  0  0  0
  4  3  1  0  0  0  0
  5  6  1  0  0  0  0
  5  4  2  0  0  0  0
  6  1  2  0  0  0  0
  7  8  1  0  0  0  0
  8  9  1  0  0  0  0
 10  1  1  0  0  0  0
 11 10  1  0  0  0  0
 12 13  1  0  0  0  0
 12 11  1  0  0  0  0
 13 18  1  0  0  0  0
 14 13  2  0  0  0  0
 15 14  1  0  0  0  0
 16 12  2  0  0  0  0
 17 15  2  0  0  0  0
 17 16  1  0  0  0  0
 19 20  1  0  0  0  0
 19 15  1  0  0  0  0
 21 19  2  0  0  0  0
 22 27  1  0  0  0  0
 22  6  1  0  0  0  0
 23 22  1  0  0  0  0
 24 23  1  0  0  0  0
 25 24  1  0  0  0  0
 26 24  1  0  0  0  0
 27 30  1  0  0  0  0
 27 28  2  0  0  0  0
 29 27  2  0  0  0  0
 30 32  1  0  0  0  0
 31 30  2  0  0  0  0
 31 33  1  0  0  0  0
 32 34  1  0  0  0  0
 33 34  2  0  0  0  0
M  END
>  <minimizedAffinity>
-8.55725574

>  <CNNscore>
0.093193464

>  <CNNaffinity>
5.56032896

$$$$

 OpenBabel08262613383D

 34 37  0  0  0  0  0  0  0  0999 V2000
   15.8860   37.3540  124.2160 C   0  0  0  0  0  0  0  0  0  0  0  0
   14.4960   37.3280  124.3830 C   0  0  0  0  0  0  0  0  0  0  0  0
   13.9780   36.9830  125.6240 C   0  0  0  0  0  0  0  0  0  0  0  0
   14.8120   36.6440  126.6910 C   0  0  0  0  0  0  0  0  0  0  0  0
   16.1860   36.6390  126.5450 C   0  0  0  0  0  0  0  0  0  0  0  0
   16.7270   36.9880  125.2970 C   0  0  0  0  0  0  0  0  0  0  0  0
   14.0120   36.2880  127.9040 C   0  0  0  0  0  0  0  0  0  0  0  0
   12.6520   36.9090  127.5550 C   0  0  0  0  0  0  0  0  0  0  0  0
   12.5380   36.8870  126.0230 C   0  0  0  0  0  0  0  0  0  0  0  0
   16.5220   37.7040  123.0510 O   0  0  0  0  0  0  0  0  0  0  0  0
   16.5810   39.0900  122.7140 C   0  0  0  0  0  0  0  0  0  0  0  0
   15.1890   39.6780  122.7960 C   0  0  0  0  0  0  0  0  0  0  0  0
   14.1480   39.3060  121.9200 C   0  0  0  0  0  0  0  0  0  0  0  0
   12.8690   39.8640  122.0970 C   0  0  0  0  0  0  0  0  0  0  0  0
   12.5960   40.7860  123.1210 C   0  0  0  0  0  0  0  0  0  0  0  0
   14.9230   40.6270  123.7980 C   0  0  0  0  0  0  0  0  0  0  0  0
   13.6470   41.1690  123.9600 C   0  0  0  0  0  0  0  0  0  0  0  0
   14.3450   38.3020  120.8160 C   0  0  0  0  0  0  0  0  0  0  0  0
   11.1980   41.3280  123.3290 C   0  0  0  0  0  0  0  0  0  0  0  0
   10.5880   41.7490  122.3020 O   0  0  0  0  0  0  0  0  0  0  0  0
   10.7330   41.3040  124.5140 O   0  0  0  0  0  0  0  0  0  0  0  0
   18.1580   37.0380  125.1480 N   0  0  0  0  0  0  0  0  0  0  0  0
   18.7690   38.3440  124.8200 C   0  0  0  0  0  0  0  0  0  0  0  0
   18.6190   39.3860  125.9340 C   0  0  0  0  0  0  0  0  0  0  0  0
   18.2020   40.7480  125.3850 C   0  0  0  0  0  0  0  0  0  0  0  0
   19.9390   39.5160  126.7000 C   0  0  0  0  0  0  0  0  0  0  0  0
   18.8830   35.6140  124.5340 S   0  0  0  0  0  0  0  0  0  0  0  0
   17.9700   34.9630  123.6090 O   0  0  0  0  0  0  0  0  0  0  0  0
   20.2210   35.9590  124.0840 O   0  0  0  0  0  0  0  0  0  0  0  0
   19.1260   34.4820  125.9030 C   0  0  0  0  0  0  0  0  0  0  0  0
   19.0780   34.8060  127.1870 N   0  0  0  0  0  0  0  0  0  0  0  0
   19.4710   32.8410  125.5530 S   0  0  0  0  0  0  0  0  0  0  0  0
   19.2500   33.6630  127.9420 C   0  0  0  0  0  0  0  0  0  0  0  0
   19.4790   32.5020  127.2320 C   0  0  0  0  0  0  0  0  0  0  0  0
  1  2  2  0  0  0  0
  1  6  1  0  0  0  0
  2  3  1  0  0  0  0
  3  9  1  0  0  0  0
  3  4  2  0  0  0  0
  4  7  1  0  0  0  0
  5  4  1  0  0  0  0
  6  5  2  0  0  0  0
  8  7  1  0  0  0  0
  9  8  1  0  0  0  0
 10  1  1  0  0  0  0
 11 12  1  0  0  0  0
 11 10  1  0  0  0  0
 12 16  1  0  0  0  0
 13 14  1  0  0  0  0
 13 12  2  0  0  0  0
 14 15  2  0  0  0  0
 15 19  1  0  0  0  0
 15 17  1  0  0  0  0
 16 17  2  0  0  0  0
 18 13  1  0  0  0  0
 19 21  1  0  0  0  0
 20 19  2  0  0  0  0
 22  6  1  0  0  0  0
 23 22  1  0  0  0  0
 23 24  1  0  0  0  0
 24 26  1  0  0  0  0
 25 24  1  0  0  0  0
 27 22  1  0  0  0  0
 27 30  1  0  0  0  0
 28 27  2  0  0  0  0
 29 27  2  0  0  0  0
 30 31  2  0  0  0  0
 31 33  1  0  0  0  0
 32 30  1  0  0  0  0
 32 34  1  0  0  0  0
 34 33  2  0  0  0  0
M  END
>  <minimizedAffinity>
-8.248806

>  <CNNscore>
0.0912277848

>  <CNNaffinity>
5.1663661

$$$$

 OpenBabel08262613383D

 34 37  0  0  0  0  0  0  0  0999 V2000
   16.8880   37.9640  125.1520 C   0  0  0  0  0  0  0  0  0  0  0  0
   16.9640   36.5730  125.2840 C   0  0  0  0  0  0  0  0  0  0  0  0
   18.1850   35.9460  125.0730 C   0  0  0  0  0  0  0  0  0  0  0  0
   19.3220   36.6730  124.7160 C   0  0  0  0  0  0  0  0  0  0  0  0
   19.2680   38.0450  124.5570 C   0  0  0  0  0  0  0  0  0  0  0  0
   18.0410   38.6940  124.7680 C   0  0  0  0  0  0  0  0  0  0  0  0
   20.4970   35.7680  124.5240 C   0  0  0  0  0  0  0  0  0  0  0  0
   20.0260   34.5070  125.2610 C   0  0  0  0  0  0  0  0  0  0  0  0
   18.4930   34.4830  125.1560 C   0  0  0  0  0  0  0  0  0  0  0  0
   15.7500   38.7040  125.3600 O   0  0  0  0  0  0  0  0  0  0  0  0
   14.5050   38.1460  124.9380 C   0  0  0  0  0  0  0  0  0  0  0  0
   13.8090   39.1280  124.0220 C   0  0  0  0  0  0  0  0  0  0  0  0
   14.0800   39.2100  122.6390 C   0  0  0  0  0  0  0  0  0  0  0  0
   13.3510   40.1170  121.8490 C   0  0  0  0  0  0  0  0  0  0  0  0
   12.3600   40.9500  122.3970 C   0  0  0  0  0  0  0  0  0  0  0  0
   12.8420   39.9860  124.5740 C   0  0  0  0  0  0  0  0  0  0  0  0
   12.1270   40.8790  123.7730 C   0  0  0  0  0  0  0  0  0  0  0  0
   15.1010   38.3340  121.9660 C   0  0  0  0  0  0  0  0  0  0  0  0
   11.5470   41.8760  121.5160 C   0  0  0  0  0  0  0  0  0  0  0  0
   12.1880   42.5840  120.6850 O   0  0  0  0  0  0  0  0  0  0  0  0
   10.2830   41.8610  121.6640 O   0  0  0  0  0  0  0  0  0  0  0  0
   17.9840   40.1280  124.6570 N   0  0  0  0  0  0  0  0  0  0  0  0
   17.4840   40.7000  123.3880 C   0  0  0  0  0  0  0  0  0  0  0  0
   16.8680   42.0950  123.5480 C   0  0  0  0  0  0  0  0  0  0  0  0
   15.6040   42.0630  124.4030 C   0  0  0  0  0  0  0  0  0  0  0  0
   16.5480   42.6790  122.1690 C   0  0  0  0  0  0  0  0  0  0  0  0
   19.1880   40.9820  125.5240 S   0  0  0  0  0  0  0  0  0  0  0  0
   20.1410   40.0400  126.0880 O   0  0  0  0  0  0  0  0  0  0  0  0
   19.6720   42.0530  124.6700 O   0  0  0  0  0  0  0  0  0  0  0  0
   18.3970   41.8060  126.9070 C   0  0  0  0  0  0  0  0  0  0  0  0
   17.4780   42.7560  126.8120 N   0  0  0  0  0  0  0  0  0  0  0  0
   18.8620   41.3620  128.4940 S   0  0  0  0  0  0  0  0  0  0  0  0
   17.0600   43.1000  128.0830 C   0  0  0  0  0  0  0  0  0  0  0  0
   17.6990   42.4520  129.1210 C   0  0  0  0  0  0  0  0  0  0  0  0
  1  2  1  0  0  0  0
  1 10  1  0  0  0  0
  3  9  1  0  0  0  0
  3  2  2  0  0  0  0
  4  3  1  0  0  0  0
  5  4  2  0  0  0  0
  5  6  1  0  0  0  0
  6  1  2  0  0  0  0
  7  4  1  0  0  0  0
  7  8  1  0  0  0  0
  9  8  1  0  0  0  0
 11 10  1  0  0  0  0
 12 16  1  0  0  0  0
 12 11  1  0  0  0  0
 13 12  2  0  0  0  0
 14 15  2  0  0  0  0
 14 13  1  0  0  0  0
 15 17  1  0  0  0  0
 17 16  2  0  0  0  0
 18 13  1  0  0  0  0
 19 21  1  0  0  0  0
 19 15  1  0  0  0  0
 20 19  2  0  0  0  0
 22  6  1  0  0  0  0
 22 27  1  0  0  0  0
 23 24  1  0  0  0  0
 23 22  1  0  0  0  0
 24 25  1  0  0  0  0
 26 24  1  0  0  0  0
 27 28  2  0  0  0  0
 27 30  1  0  0  0  0
 29 27  2  0  0  0  0
 30 32  1  0  0  0  0
 31 30  2  0  0  0  0
 31 33  1  0  0  0  0
 32 34  1  0  0  0  0
 33 34  2  0  0  0  0
M  END
>  <minimizedAffinity>
-8.06260967

>  <CNNscore>
0.089576833

>  <CNNaffinity>
5.3333149

$$$$
