
 OpenBabel08262614303D

 27 30  0  0  1  0  0  0  0  0999 V2000
   13.8680   35.9900  125.8430 C   0  0  2  0  0  0  0  0  0  0  0  0
   15.0710   36.2270  126.7650 C   0  0  0  0  0  0  0  0  0  0  0  0
   16.3270   36.4700  125.9490 C   0  0  0  0  0  0  0  0  0  0  0  0
   17.4350   35.7010  125.9200 C   0  0  0  0  0  0  0  0  0  0  0  0
   18.5620   35.7730  124.9360 C   0  0  0  0  0  0  0  0  0  0  0  0
   19.0290   34.3340  124.8640 C   0  0  0  0  0  0  0  0  0  0  0  0
   18.7040   33.7560  126.1440 N   0  0  0  0  0  0  0  0  0  0  0  0
   17.7200   34.5140  126.7970 C   0  0  0  0  0  0  0  0  0  0  0  0
   17.2130   34.3290  127.8890 O   0  0  0  0  0  0  0  0  0  0  0  0
   16.1240   37.6360  125.0530 C   0  0  0  0  0  0  0  0  0  0  0  0
   17.1200   38.6060  124.8520 C   0  0  0  0  0  0  0  0  0  0  0  0
   16.8850   39.6980  124.0160 C   0  0  0  0  0  0  0  0  0  0  0  0
   15.6520   39.8300  123.3880 C   0  0  0  0  0  0  0  0  0  0  0  0
   15.3730   41.1640  122.3360 Cl  0  0  0  0  0  0  0  0  0  0  0  0
   14.6430   38.8950  123.6090 C   0  0  0  0  0  0  0  0  0  0  0  0
   14.8520   37.8130  124.4740 C   0  0  0  0  0  0  0  0  0  0  0  0
   13.8300   36.8670  124.6270 N   0  0  0  0  0  0  0  0  0  0  0  0
   12.8930   37.3070  124.6450 H   0  0  0  0  0  0  0  0  0  0  0  0
   12.5460   36.1980  126.6660 C   0  0  0  0  0  0  0  0  0  0  0  0
   11.4850   35.7450  126.1530 O   0  0  0  0  0  0  0  0  0  0  0  0
   12.7060   36.8250  127.7640 O   0  0  0  0  0  0  0  0  0  0  0  0
   19.2340   32.5060  126.5760 C   0  0  0  0  0  0  0  0  0  0  0  0
   18.6390   31.8020  127.6380 C   0  0  0  0  0  0  0  0  0  0  0  0
   20.3570   31.9270  125.9720 C   0  0  0  0  0  0  0  0  0  0  0  0
   19.1440   30.5720  128.0740 C   0  0  0  0  0  0  0  0  0  0  0  0
   20.8650   30.6960  126.4060 C   0  0  0  0  0  0  0  0  0  0  0  0
   20.2590   30.0170  127.4560 C   0  0  0  0  0  0  0  0  0  0  0  0
  1 19  1  1  0  0  0
  1  2  1  0  0  0  0
  3  2  1  0  0  0  0
  4  3  2  0  0  0  0
  4  8  1  0  0  0  0
  5  4  1  0  0  0  0
  6  5  1  0  0  0  0
  6  7  1  0  0  0  0
  7 22  1  0  0  0  0
  7  8  1  0  0  0  0
  8  9  2  0  0  0  0
 10  3  1  0  0  0  0
 11 10  1  0  0  0  0
 12 11  2  0  0  0  0
 13 15  2  0  0  0  0
 13 12  1  0  0  0  0
 14 13  1  0  0  0  0
 15 16  1  0  0  0  0
 16 17  1  0  0  0  0
 16 10  2  0  0  0  0
 17 18  1  0  0  0  0
 17  1  1  0  0  0  0
 19 21  1  0  0  0  0
 20 19  2  0  0  0  0
 22 23  1  0  0  0  0
 23 25  2  0  0  0  0
 24 26  1  0  0  0  0
 24 22  2  0  0  0  0
 26 27  2  0  0  0  0
 27 25  1  0  0  0  0
M  END
>  <minimizedAffinity>
-9.14789104

>  <CNNscore>
0.645309091

>  <CNNaffinity>
6.3255558

$$$$

 OpenBabel08262614303D

 27 30  0  0  1  0  0  0  0  0999 V2000
   15.5400   35.9870  126.5290 C   0  0  2  0  0  0  0  0  0  0  0  0
   16.1370   36.5080  125.2170 C   0  0  0  0  0  0  0  0  0  0  0  0
   17.6520   36.5410  125.2980 C   0  0  0  0  0  0  0  0  0  0  0  0
   18.4430   37.6320  125.2350 C   0  0  0  0  0  0  0  0  0  0  0  0
   19.8980   37.7160  125.5760 C   0  0  0  0  0  0  0  0  0  0  0  0
   20.0360   39.1360  126.0850 C   0  0  0  0  0  0  0  0  0  0  0  0
   19.0040   39.8890  125.4170 N   0  0  0  0  0  0  0  0  0  0  0  0
   18.0030   39.0360  124.9290 C   0  0  0  0  0  0  0  0  0  0  0  0
   16.9910   39.3190  124.3130 O   0  0  0  0  0  0  0  0  0  0  0  0
   18.1670   35.1810  125.5970 C   0  0  0  0  0  0  0  0  0  0  0  0
   19.3020   34.6550  124.9580 C   0  0  0  0  0  0  0  0  0  0  0  0
   19.7450   33.3650  125.2530 C   0  0  0  0  0  0  0  0  0  0  0  0
   19.0490   32.5930  126.1770 C   0  0  0  0  0  0  0  0  0  0  0  0
   19.6120   31.0110  126.5590 Cl  0  0  0  0  0  0  0  0  0  0  0  0
   17.9000   33.0890  126.7890 C   0  0  0  0  0  0  0  0  0  0  0  0
   17.4230   34.3690  126.4760 C   0  0  0  0  0  0  0  0  0  0  0  0
   16.2950   34.8510  127.1530 N   0  0  0  0  0  0  0  0  0  0  0  0
   15.5870   34.1100  127.3040 H   0  0  0  0  0  0  0  0  0  0  0  0
   14.0570   35.5350  126.2710 C   0  0  0  0  0  0  0  0  0  0  0  0
   13.3430   35.3340  127.2920 O   0  0  0  0  0  0  0  0  0  0  0  0
   13.7560   35.4080  125.0400 O   0  0  0  0  0  0  0  0  0  0  0  0
   18.9800   41.3140  125.4080 C   0  0  0  0  0  0  0  0  0  0  0  0
   17.7670   42.0100  125.2660 C   0  0  0  0  0  0  0  0  0  0  0  0
   20.1470   42.0770  125.5400 C   0  0  0  0  0  0  0  0  0  0  0  0
   17.7240   43.4090  125.2590 C   0  0  0  0  0  0  0  0  0  0  0  0
   20.1080   43.4770  125.5330 C   0  0  0  0  0  0  0  0  0  0  0  0
   18.8970   44.1440  125.3930 C   0  0  0  0  0  0  0  0  0  0  0  0
  1 19  1  6  0  0  0
  1 17  1  0  0  0  0
  2  3  1  0  0  0  0
  2  1  1  0  0  0  0
  3 10  1  0  0  0  0
  4  3  2  0  0  0  0
  4  5  1  0  0  0  0
  5  6  1  0  0  0  0
  7  6  1  0  0  0  0
  8  4  1  0  0  0  0
  8  7  1  0  0  0  0
  9  8  2  0  0  0  0
 10 16  1  0  0  0  0
 11 12  1  0  0  0  0
 11 10  2  0  0  0  0
 12 13  2  0  0  0  0
 13 14  1  0  0  0  0
 13 15  1  0  0  0  0
 16 15  2  0  0  0  0
 16 17  1  0  0  0  0
 17 18  1  0  0  0  0
 19 20  1  0  0  0  0
 21 19  2  0  0  0  0
 22  7  1  0  0  0  0
 22 24  1  0  0  0  0
 23 22  2  0  0  0  0
 25 23  1  0  0  0  0
 25 27  2  0  0  0  0
 26 24  2  0  0  0  0
 27 26  1  0  0  0  0
M  END
>  <minimizedAffinity>
-6.40937424

>  <CNNscore>
0.376633912

>  <CNNaffinity>
5.98509455

$$$$

 OpenBabel08262614303D

 27 30  0  0  1  0  0  0  0  0999 V2000
   19.2440   39.7830  125.1820 C   0  0  2  0  0  0  0  0  0  0  0  0
   17.8500   39.3440  125.6480 C   0  0  0  0  0  0  0  0  0  0  0  0
   17.2720   38.3120  124.6990 C   0  0  0  0  0  0  0  0  0  0  0  0
   16.1680   38.4430  123.9340 C   0  0  0  0  0  0  0  0  0  0  0  0
   15.7360   37.5560  122.8080 C   0  0  0  0  0  0  0  0  0  0  0  0
   15.0130   38.5200  121.8880 C   0  0  0  0  0  0  0  0  0  0  0  0
   14.5030   39.5630  122.7430 N   0  0  0  0  0  0  0  0  0  0  0  0
   15.1930   39.5870  123.9640 C   0  0  0  0  0  0  0  0  0  0  0  0
   15.0280   40.3240  124.9200 O   0  0  0  0  0  0  0  0  0  0  0  0
   18.1820   37.1420  124.6160 C   0  0  0  0  0  0  0  0  0  0  0  0
   17.7020   35.8220  124.6060 C   0  0  0  0  0  0  0  0  0  0  0  0
   18.5900   34.7470  124.5460 C   0  0  0  0  0  0  0  0  0  0  0  0
   19.9590   34.9880  124.5080 C   0  0  0  0  0  0  0  0  0  0  0  0
   21.0530   33.6620  124.4070 Cl  0  0  0  0  0  0  0  0  0  0  0  0
   20.4490   36.2920  124.5560 C   0  0  0  0  0  0  0  0  0  0  0  0
   19.5700   37.3790  124.6530 C   0  0  0  0  0  0  0  0  0  0  0  0
   20.1000   38.6760  124.6450 N   0  0  0  0  0  0  0  0  0  0  0  0
   20.9840   38.7370  125.1820 H   0  0  0  0  0  0  0  0  0  0  0  0
   19.9900   40.4720  126.3810 C   0  0  0  0  0  0  0  0  0  0  0  0
   20.0460   39.8190  127.4590 O   0  0  0  0  0  0  0  0  0  0  0  0
   20.4420   41.6330  126.1170 O   0  0  0  0  0  0  0  0  0  0  0  0
   13.5280   40.5040  122.3030 C   0  0  0  0  0  0  0  0  0  0  0  0
   13.7970   41.3630  121.2230 C   0  0  0  0  0  0  0  0  0  0  0  0
   12.2740   40.6150  122.9140 C   0  0  0  0  0  0  0  0  0  0  0  0
   12.8500   42.2920  120.7740 C   0  0  0  0  0  0  0  0  0  0  0  0
   11.3240   41.5420  122.4680 C   0  0  0  0  0  0  0  0  0  0  0  0
   11.6110   42.3810  121.3980 C   0  0  0  0  0  0  0  0  0  0  0  0
  1  2  1  0  0  0  0
  1 19  1  1  0  0  0
  3  2  1  0  0  0  0
  4  8  1  0  0  0  0
  4  3  2  0  0  0  0
  5  4  1  0  0  0  0
  6  7  1  0  0  0  0
  6  5  1  0  0  0  0
  7  8  1  0  0  0  0
  8  9  2  0  0  0  0
 10 16  1  0  0  0  0
 10  3  1  0  0  0  0
 11 10  2  0  0  0  0
 12 11  1  0  0  0  0
 13 12  2  0  0  0  0
 13 15  1  0  0  0  0
 14 13  1  0  0  0  0
 15 16  2  0  0  0  0
 17 16  1  0  0  0  0
 17  1  1  0  0  0  0
 17 18  1  0  0  0  0
 19 20  1  0  0  0  0
 21 19  2  0  0  0  0
 22  7  1  0  0  0  0
 22 24  1  0  0  0  0
 23 22  2  0  0  0  0
 25 23  1  0  0  0  0
 25 27  2  0  0  0  0
 26 24  2  0  0  0  0
 27 26  1  0  0  0  0
M  END
>  <minimizedAffinity>
-8.2398653

>  <CNNscore>
0.302141964

>  <CNNaffinity>
5.35301447

$$$$

 OpenBabel08262614303D

 27 30  0  0  1  0  0  0  0  0999 V2000
   17.1430   39.3790  123.4330 C   0  0  2  0  0  0  0  0  0  0  0  0
   16.9900   38.7860  124.8390 C   0  0  0  0  0  0  0  0  0  0  0  0
   18.3500   38.5730  125.4780 C   0  0  0  0  0  0  0  0  0  0  0  0
   18.8990   37.3950  125.8400 C   0  0  0  0  0  0  0  0  0  0  0  0
   20.3250   37.1390  126.2190 C   0  0  0  0  0  0  0  0  0  0  0  0
   20.5390   35.7140  125.7510 C   0  0  0  0  0  0  0  0  0  0  0  0
   19.2420   35.0880  125.8100 N   0  0  0  0  0  0  0  0  0  0  0  0
   18.2230   36.0520  125.8200 C   0  0  0  0  0  0  0  0  0  0  0  0
   17.0180   35.8900  125.8710 O   0  0  0  0  0  0  0  0  0  0  0  0
   19.0820   39.8630  125.5370 C   0  0  0  0  0  0  0  0  0  0  0  0
   19.8270   40.2480  126.6640 C   0  0  0  0  0  0  0  0  0  0  0  0
   20.4880   41.4770  126.6890 C   0  0  0  0  0  0  0  0  0  0  0  0
   20.3960   42.3290  125.5940 C   0  0  0  0  0  0  0  0  0  0  0  0
   21.2340   43.8330  125.6150 Cl  0  0  0  0  0  0  0  0  0  0  0  0
   19.6300   41.9750  124.4850 C   0  0  0  0  0  0  0  0  0  0  0  0
   18.9320   40.7600  124.4610 C   0  0  0  0  0  0  0  0  0  0  0  0
   18.2160   40.4180  123.3060 N   0  0  0  0  0  0  0  0  0  0  0  0
   17.7450   41.2390  122.8850 H   0  0  0  0  0  0  0  0  0  0  0  0
   15.7700   40.0030  122.9910 C   0  0  0  0  0  0  0  0  0  0  0  0
   14.8580   39.1910  122.6740 O   0  0  0  0  0  0  0  0  0  0  0  0
   15.7510   41.2770  122.9910 O   0  0  0  0  0  0  0  0  0  0  0  0
   19.0700   33.6760  125.7220 C   0  0  0  0  0  0  0  0  0  0  0  0
   18.3650   32.9770  126.7180 C   0  0  0  0  0  0  0  0  0  0  0  0
   19.5850   32.9290  124.6550 C   0  0  0  0  0  0  0  0  0  0  0  0
   18.1830   31.5900  126.6470 C   0  0  0  0  0  0  0  0  0  0  0  0
   19.4040   31.5420  124.5810 C   0  0  0  0  0  0  0  0  0  0  0  0
   18.7030   30.8720  125.5770 C   0  0  0  0  0  0  0  0  0  0  0  0
  1 19  1  1  0  0  0
  1  2  1  0  0  0  0
  2  3  1  0  0  0  0
  3 10  1  0  0  0  0
  3  4  2  0  0  0  0
  4  5  1  0  0  0  0
  6  7  1  0  0  0  0
  6  5  1  0  0  0  0
  7  8  1  0  0  0  0
  8  4  1  0  0  0  0
  8  9  2  0  0  0  0
 10 11  1  0  0  0  0
 11 12  2  0  0  0  0
 13 14  1  0  0  0  0
 13 12  1  0  0  0  0
 15 13  2  0  0  0  0
 16 15  1  0  0  0  0
 16 10  2  0  0  0  0
 17  1  1  0  0  0  0
 17 16  1  0  0  0  0
 18 17  1  0  0  0  0
 20 19  2  0  0  0  0
 21 19  1  0  0  0  0
 22  7  1  0  0  0  0
 22 23  1  0  0  0  0
 24 22  2  0  0  0  0
 25 23  2  0  0  0  0
 26 24  1  0  0  0  0
 26 27  2  0  0  0  0
 27 25  1  0  0  0  0
M  END
>  <minimizedAffinity>
-7.27629042

>  <CNNscore>
0.28817004

>  <CNNaffinity>
6.02254868

$$$$

 OpenBabel08262614303D

 27 30  0  0  1  0  0  0  0  0999 V2000
   15.1280   36.3190  126.4760 C   0  0  2  0  0  0  0  0  0  0  0  0
   15.4410   37.0810  125.1820 C   0  0  0  0  0  0  0  0  0  0  0  0
   16.9060   37.4730  125.1380 C   0  0  0  0  0  0  0  0  0  0  0  0
   17.4090   38.7250  125.1280 C   0  0  0  0  0  0  0  0  0  0  0  0
   18.8330   39.1310  125.3520 C   0  0  0  0  0  0  0  0  0  0  0  0
   18.6900   40.4930  125.9990 C   0  0  0  0  0  0  0  0  0  0  0  0
   17.4440   41.0270  125.5070 N   0  0  0  0  0  0  0  0  0  0  0  0
   16.6230   40.0020  125.0150 C   0  0  0  0  0  0  0  0  0  0  0  0
   15.5130   40.0820  124.5210 O   0  0  0  0  0  0  0  0  0  0  0  0
   17.7540   36.2590  125.2420 C   0  0  0  0  0  0  0  0  0  0  0  0
   18.9040   36.0810  124.4560 C   0  0  0  0  0  0  0  0  0  0  0  0
   19.6650   34.9170  124.5700 C   0  0  0  0  0  0  0  0  0  0  0  0
   19.2720   33.9230  125.4600 C   0  0  0  0  0  0  0  0  0  0  0  0
   20.2280   32.4990  125.6180 Cl  0  0  0  0  0  0  0  0  0  0  0  0
   18.1130   34.0710  126.2180 C   0  0  0  0  0  0  0  0  0  0  0  0
   17.3190   35.2190  126.0870 C   0  0  0  0  0  0  0  0  0  0  0  0
   16.1900   35.3520  126.9050 N   0  0  0  0  0  0  0  0  0  0  0  0
   15.6950   34.4510  127.0340 H   0  0  0  0  0  0  0  0  0  0  0  0
   13.7720   35.5450  126.2960 C   0  0  0  0  0  0  0  0  0  0  0  0
   13.7160   34.7220  125.3400 O   0  0  0  0  0  0  0  0  0  0  0  0
   12.8740   35.8580  127.1430 O   0  0  0  0  0  0  0  0  0  0  0  0
   17.0880   42.3980  125.6560 C   0  0  0  0  0  0  0  0  0  0  0  0
   16.7780   42.9260  126.9210 C   0  0  0  0  0  0  0  0  0  0  0  0
   17.0320   43.2740  124.5640 C   0  0  0  0  0  0  0  0  0  0  0  0
   16.4290   44.2720  127.0870 C   0  0  0  0  0  0  0  0  0  0  0  0
   16.6840   44.6210  124.7260 C   0  0  0  0  0  0  0  0  0  0  0  0
   16.3830   45.1210  125.9870 C   0  0  0  0  0  0  0  0  0  0  0  0
  1 19  1  6  0  0  0
  1 17  1  0  0  0  0
  2  1  1  0  0  0  0
  3  2  1  0  0  0  0
  3 10  1  0  0  0  0
  4  3  2  0  0  0  0
  4  5  1  0  0  0  0
  5  6  1  0  0  0  0
  7 22  1  0  0  0  0
  7  6  1  0  0  0  0
  8  4  1  0  0  0  0
  8  7  1  0  0  0  0
  9  8  2  0  0  0  0
 10 16  1  0  0  0  0
 11 12  1  0  0  0  0
 11 10  2  0  0  0  0
 12 13  2  0  0  0  0
 13 14  1  0  0  0  0
 13 15  1  0  0  0  0
 16 15  2  0  0  0  0
 16 17  1  0  0  0  0
 17 18  1  0  0  0  0
 19 21  1  0  0  0  0
 20 19  2  0  0  0  0
 22 23  1  0  0  0  0
 23 25  2  0  0  0  0
 24 26  1  0  0  0  0
 24 22  2  0  0  0  0
 26 27  2  0  0  0  0
 27 25  1  0  0  0  0
M  END
>  <minimizedAffinity>
-7.84775734

>  <CNNscore>
0.270926297

>  <CNNaffinity>
5.70596647

$$$$

 OpenBabel08262614303D

 27 30  0  0  1  0  0  0  0  0999 V2000
   13.6830   37.6080  125.2860 C   0  0  2  0  0  0  0  0  0  0  0  0
   13.6580   37.7690  123.7620 C   0  0  0  0  0  0  0  0  0  0  0  0
   14.5220   38.9410  123.3360 C   0  0  0  0  0  0  0  0  0  0  0  0
   14.1100   40.0720  122.7260 C   0  0  0  0  0  0  0  0  0  0  0  0
   14.8900   41.3370  122.5410 C   0  0  0  0  0  0  0  0  0  0  0  0
   13.8080   42.3980  122.5700 C   0  0  0  0  0  0  0  0  0  0  0  0
   12.6130   41.7460  122.0940 N   0  0  0  0  0  0  0  0  0  0  0  0
   12.7270   40.3530  122.2070 C   0  0  0  0  0  0  0  0  0  0  0  0
   11.9220   39.4930  121.8990 O   0  0  0  0  0  0  0  0  0  0  0  0
   15.9130   38.7360  123.8110 C   0  0  0  0  0  0  0  0  0  0  0  0
   17.0280   39.0310  123.0090 C   0  0  0  0  0  0  0  0  0  0  0  0
   18.3210   38.8080  123.4850 C   0  0  0  0  0  0  0  0  0  0  0  0
   18.5030   38.2780  124.7580 C   0  0  0  0  0  0  0  0  0  0  0  0
   20.0990   38.0280  125.3530 Cl  0  0  0  0  0  0  0  0  0  0  0  0
   17.4050   37.9460  125.5490 C   0  0  0  0  0  0  0  0  0  0  0  0
   16.1010   38.1320  125.0700 C   0  0  0  0  0  0  0  0  0  0  0  0
   15.0250   37.8350  125.9170 N   0  0  0  0  0  0  0  0  0  0  0  0
   15.2010   36.9860  126.4850 H   0  0  0  0  0  0  0  0  0  0  0  0
   13.1820   36.1650  125.6550 C   0  0  0  0  0  0  0  0  0  0  0  0
   12.1050   36.0920  126.3080 O   0  0  0  0  0  0  0  0  0  0  0  0
   13.9470   35.2280  125.2560 O   0  0  0  0  0  0  0  0  0  0  0  0
   11.4500   42.4710  121.7040 C   0  0  0  0  0  0  0  0  0  0  0  0
   10.3000   42.4700  122.5130 C   0  0  0  0  0  0  0  0  0  0  0  0
   11.3980   43.2100  120.5160 C   0  0  0  0  0  0  0  0  0  0  0  0
    9.1500   43.1800  122.1490 C   0  0  0  0  0  0  0  0  0  0  0  0
   10.2490   43.9200  120.1480 C   0  0  0  0  0  0  0  0  0  0  0  0
    9.1240   43.9060  120.9640 C   0  0  0  0  0  0  0  0  0  0  0  0
  1 19  1  6  0  0  0
  1 17  1  0  0  0  0
  2  1  1  0  0  0  0
  3  2  1  0  0  0  0
  3 10  1  0  0  0  0
  4  3  2  0  0  0  0
  5  6  1  0  0  0  0
  5  4  1  0  0  0  0
  7  8  1  0  0  0  0
  7  6  1  0  0  0  0
  8  4  1  0  0  0  0
  9  8  2  0  0  0  0
 10 16  1  0  0  0  0
 11 12  1  0  0  0  0
 11 10  2  0  0  0  0
 12 13  2  0  0  0  0
 13 14  1  0  0  0  0
 13 15  1  0  0  0  0
 16 15  2  0  0  0  0
 16 17  1  0  0  0  0
 17 18  1  0  0  0  0
 19 20  1  0  0  0  0
 21 19  2  0  0  0  0
 22  7  1  0  0  0  0
 22 23  1  0  0  0  0
 24 22  2  0  0  0  0
 25 23  2  0  0  0  0
 26 24  1  0  0  0  0
 26 27  2  0  0  0  0
 27 25  1  0  0  0  0
M  END
>  <minimizedAffinity>
-8.11313438

>  <CNNscore>
0.260287315

>  <CNNaffinity>
5.27478838

$$$$

 OpenBabel08262614303D

 27 30  0  0  1  0  0  0  0  0999 V2000
   18.3080   36.7780  124.3150 C   0  0  2  0  0  0  0  0  0  0  0  0
   18.2420   37.5410  125.6430 C   0  0  0  0  0  0  0  0  0  0  0  0
   17.6150   38.9080  125.4400 C   0  0  0  0  0  0  0  0  0  0  0  0
   18.2070   40.1060  125.6270 C   0  0  0  0  0  0  0  0  0  0  0  0
   17.7030   41.4440  125.1830 C   0  0  0  0  0  0  0  0  0  0  0  0
   18.9840   42.2100  124.9230 C   0  0  0  0  0  0  0  0  0  0  0  0
   19.9690   41.6260  125.8000 N   0  0  0  0  0  0  0  0  0  0  0  0
   19.5710   40.3460  126.2130 C   0  0  0  0  0  0  0  0  0  0  0  0
   20.1450   39.5690  126.9540 O   0  0  0  0  0  0  0  0  0  0  0  0
   16.2560   38.7560  124.8630 C   0  0  0  0  0  0  0  0  0  0  0  0
   15.1680   39.5290  125.2990 C   0  0  0  0  0  0  0  0  0  0  0  0
   13.9010   39.3430  124.7440 C   0  0  0  0  0  0  0  0  0  0  0  0
   13.7160   38.3770  123.7610 C   0  0  0  0  0  0  0  0  0  0  0  0
   12.1580   38.1680  123.0580 Cl  0  0  0  0  0  0  0  0  0  0  0  0
   14.7790   37.5780  123.3460 C   0  0  0  0  0  0  0  0  0  0  0  0
   16.0480   37.7290  123.9210 C   0  0  0  0  0  0  0  0  0  0  0  0
   17.1030   36.9420  123.4390 N   0  0  0  0  0  0  0  0  0  0  0  0
   16.7980   35.9760  123.2200 H   0  0  0  0  0  0  0  0  0  0  0  0
   18.5190   35.2500  124.6160 C   0  0  0  0  0  0  0  0  0  0  0  0
   19.6070   34.7430  124.2250 O   0  0  0  0  0  0  0  0  0  0  0  0
   17.5410   34.6950  125.2140 O   0  0  0  0  0  0  0  0  0  0  0  0
   21.2240   42.2470  126.0620 C   0  0  0  0  0  0  0  0  0  0  0  0
   21.5140   43.5230  125.5480 C   0  0  0  0  0  0  0  0  0  0  0  0
   22.2130   41.6270  126.8360 C   0  0  0  0  0  0  0  0  0  0  0  0
   22.7400   44.1510  125.7990 C   0  0  0  0  0  0  0  0  0  0  0  0
   23.4400   42.2520  127.0890 C   0  0  0  0  0  0  0  0  0  0  0  0
   23.7040   43.5150  126.5710 C   0  0  0  0  0  0  0  0  0  0  0  0
  1 19  1  1  0  0  0
  1  2  1  0  0  0  0
  3  4  2  0  0  0  0
  3  2  1  0  0  0  0
  4  8  1  0  0  0  0
  5  4  1  0  0  0  0
  6  5  1  0  0  0  0
  6  7  1  0  0  0  0
  7 22  1  0  0  0  0
  7  8  1  0  0  0  0
  8  9  2  0  0  0  0
 10 11  1  0  0  0  0
 10  3  1  0  0  0  0
 12 11  2  0  0  0  0
 13 12  1  0  0  0  0
 14 13  1  0  0  0  0
 15 13  2  0  0  0  0
 15 16  1  0  0  0  0
 16 10  2  0  0  0  0
 17 16  1  0  0  0  0
 17  1  1  0  0  0  0
 18 17  1  0  0  0  0
 19 21  1  0  0  0  0
 20 19  2  0  0  0  0
 22 24  1  0  0  0  0
 23 25  1  0  0  0  0
 23 22  2  0  0  0  0
 24 26  2  0  0  0  0
 25 27  2  0  0  0  0
 27 26  1  0  0  0  0
M  END
>  <minimizedAffinity>
-5.47525549

>  <CNNscore>
0.25612098

>  <CNNaffinity>
5.37210608

$$$$

 OpenBabel08262614303D

 27 30  0  0  1  0  0  0  0  0999 V2000
   14.0260   37.7980  125.1350 C   0  0  2  0  0  0  0  0  0  0  0  0
   14.2590   38.1550  123.6620 C   0  0  0  0  0  0  0  0  0  0  0  0
   15.4280   39.1130  123.5250 C   0  0  0  0  0  0  0  0  0  0  0  0
   15.3860   40.3800  123.0630 C   0  0  0  0  0  0  0  0  0  0  0  0
   16.4610   41.4180  123.1690 C   0  0  0  0  0  0  0  0  0  0  0  0
   15.6680   42.7060  123.2510 C   0  0  0  0  0  0  0  0  0  0  0  0
   14.4340   42.4480  122.5510 N   0  0  0  0  0  0  0  0  0  0  0  0
   14.1980   41.0690  122.4510 C   0  0  0  0  0  0  0  0  0  0  0  0
   13.2660   40.4890  121.9240 O   0  0  0  0  0  0  0  0  0  0  0  0
   16.6480   38.5010  124.1070 C   0  0  0  0  0  0  0  0  0  0  0  0
   17.9040   38.6030  123.4880 C   0  0  0  0  0  0  0  0  0  0  0  0
   19.0250   37.9980  124.0570 C   0  0  0  0  0  0  0  0  0  0  0  0
   18.8920   37.2800  125.2410 C   0  0  0  0  0  0  0  0  0  0  0  0
   20.2820   36.5570  125.9560 Cl  0  0  0  0  0  0  0  0  0  0  0  0
   17.6450   37.1400  125.8460 C   0  0  0  0  0  0  0  0  0  0  0  0
   16.5050   37.7110  125.2660 C   0  0  0  0  0  0  0  0  0  0  0  0
   15.2790   37.5920  125.9330 N   0  0  0  0  0  0  0  0  0  0  0  0
   15.1660   36.6610  126.3730 H   0  0  0  0  0  0  0  0  0  0  0  0
   13.1510   36.4950  125.2110 C   0  0  0  0  0  0  0  0  0  0  0  0
   13.6630   35.4430  124.7360 O   0  0  0  0  0  0  0  0  0  0  0  0
   12.0040   36.6660  125.7390 O   0  0  0  0  0  0  0  0  0  0  0  0
   13.5440   43.4890  122.1610 C   0  0  0  0  0  0  0  0  0  0  0  0
   13.8500   44.3240  121.0720 C   0  0  0  0  0  0  0  0  0  0  0  0
   12.3370   43.7260  122.8320 C   0  0  0  0  0  0  0  0  0  0  0  0
   12.9860   45.3500  120.6710 C   0  0  0  0  0  0  0  0  0  0  0  0
   11.4700   44.7510  122.4340 C   0  0  0  0  0  0  0  0  0  0  0  0
   11.7930   45.5630  121.3540 C   0  0  0  0  0  0  0  0  0  0  0  0
  1 19  1  6  0  0  0
  1 17  1  0  0  0  0
  2  1  1  0  0  0  0
  3  2  1  0  0  0  0
  3 10  1  0  0  0  0
  4  5  1  0  0  0  0
  4  3  2  0  0  0  0
  5  6  1  0  0  0  0
  7  6  1  0  0  0  0
  8  7  1  0  0  0  0
  8  4  1  0  0  0  0
  9  8  2  0  0  0  0
 10 16  1  0  0  0  0
 11 12  1  0  0  0  0
 11 10  2  0  0  0  0
 12 13  2  0  0  0  0
 13 15  1  0  0  0  0
 13 14  1  0  0  0  0
 16 15  2  0  0  0  0
 16 17  1  0  0  0  0
 17 18  1  0  0  0  0
 19 21  1  0  0  0  0
 20 19  2  0  0  0  0
 22  7  1  0  0  0  0
 22 24  1  0  0  0  0
 23 22  2  0  0  0  0
 25 23  1  0  0  0  0
 25 27  2  0  0  0  0
 26 24  2  0  0  0  0
 27 26  1  0  0  0  0
M  END
>  <minimizedAffinity>
-6.03589106

>  <CNNscore>
0.252978295

>  <CNNaffinity>
5.20795298

$$$$

 OpenBabel08262614303D

 27 30  0  0  1  0  0  0  0  0999 V2000
   14.5500   36.7150  124.2810 C   0  0  2  0  0  0  0  0  0  0  0  0
   15.1330   36.7050  125.6990 C   0  0  0  0  0  0  0  0  0  0  0  0
   16.6280   36.9590  125.6620 C   0  0  0  0  0  0  0  0  0  0  0  0
   17.6030   36.1100  126.0470 C   0  0  0  0  0  0  0  0  0  0  0  0
   19.0700   36.2320  125.7730 C   0  0  0  0  0  0  0  0  0  0  0  0
   19.5120   34.7850  125.6900 C   0  0  0  0  0  0  0  0  0  0  0  0
   18.5920   34.0500  126.5230 N   0  0  0  0  0  0  0  0  0  0  0  0
   17.4140   34.7830  126.7290 C   0  0  0  0  0  0  0  0  0  0  0  0
   16.4300   34.4810  127.3800 O   0  0  0  0  0  0  0  0  0  0  0  0
   16.8990   38.2600  125.0010 C   0  0  0  0  0  0  0  0  0  0  0  0
   17.8620   39.1590  125.4870 C   0  0  0  0  0  0  0  0  0  0  0  0
   18.0750   40.3810  124.8490 C   0  0  0  0  0  0  0  0  0  0  0  0
   17.3190   40.7130  123.7300 C   0  0  0  0  0  0  0  0  0  0  0  0
   17.6020   42.2100  122.9270 Cl  0  0  0  0  0  0  0  0  0  0  0  0
   16.3350   39.8460  123.2600 C   0  0  0  0  0  0  0  0  0  0  0  0
   16.0850   38.6320  123.9130 C   0  0  0  0  0  0  0  0  0  0  0  0
   15.1230   37.7660  123.3770 N   0  0  0  0  0  0  0  0  0  0  0  0
   14.3020   38.2780  123.0080 H   0  0  0  0  0  0  0  0  0  0  0  0
   12.9930   36.9110  124.3700 C   0  0  0  0  0  0  0  0  0  0  0  0
   12.3330   35.9580  124.8710 O   0  0  0  0  0  0  0  0  0  0  0  0
   12.5780   38.0210  123.9040 O   0  0  0  0  0  0  0  0  0  0  0  0
   18.8370   32.7090  126.9340 C   0  0  0  0  0  0  0  0  0  0  0  0
   18.1070   31.6430  126.3790 C   0  0  0  0  0  0  0  0  0  0  0  0
   19.8030   32.3910  127.8970 C   0  0  0  0  0  0  0  0  0  0  0  0
   18.3360   30.3180  126.7680 C   0  0  0  0  0  0  0  0  0  0  0  0
   20.0350   31.0670  128.2890 C   0  0  0  0  0  0  0  0  0  0  0  0
   19.3020   30.0300  127.7250 C   0  0  0  0  0  0  0  0  0  0  0  0
  1 19  1  1  0  0  0
  1  2  1  0  0  0  0
  3  2  1  0  0  0  0
  3  4  2  0  0  0  0
  4  8  1  0  0  0  0
  5  4  1  0  0  0  0
  6  5  1  0  0  0  0
  6  7  1  0  0  0  0
  7  8  1  0  0  0  0
  7 22  1  0  0  0  0
  8  9  2  0  0  0  0
 10 11  1  0  0  0  0
 10  3  1  0  0  0  0
 12 11  2  0  0  0  0
 13 12  1  0  0  0  0
 14 13  1  0  0  0  0
 15 13  2  0  0  0  0
 15 16  1  0  0  0  0
 16 10  2  0  0  0  0
 17 16  1  0  0  0  0
 17  1  1  0  0  0  0
 18 17  1  0  0  0  0
 19 20  1  0  0  0  0
 21 19  2  0  0  0  0
 22 24  1  0  0  0  0
 23 25  1  0  0  0  0
 23 22  2  0  0  0  0
 24 26  2  0  0  0  0
 25 27  2  0  0  0  0
 27 26  1  0  0  0  0
M  END
>  <minimizedAffinity>
-8.0396862

>  <CNNscore>
0.249906391

>  <CNNaffinity>
5.95855141

$$$$
