
 OpenBabel08272601323D

 23 26  0  0  0  0  0  0  0  0999 V2000
   13.7020   35.9420  126.0440 C   0  0  0  0  0  0  0  0  0  0  0  0
   13.4630   36.3390  127.4960 C   0  0  0  0  0  0  0  0  0  0  0  0
   14.1070   35.6680  128.3470 O   0  0  0  0  0  0  0  0  0  0  0  0
   12.6540   37.2930  127.6710 O   0  0  0  0  0  0  0  0  0  0  0  0
   14.2350   37.0880  125.1980 C   0  0  0  0  0  0  0  0  0  0  0  0
   15.6650   37.4510  125.5580 C   0  0  0  0  0  0  0  0  0  0  0  0
   15.9400   38.5900  125.9450 O   0  0  0  0  0  0  0  0  0  0  0  0
   16.7770   36.4610  125.3920 C   0  0  0  0  0  0  0  0  0  0  0  0
   17.7210   36.7020  124.3600 C   0  0  0  0  0  0  0  0  0  0  0  0
   16.9030   35.3240  126.1990 C   0  0  0  0  0  0  0  0  0  0  0  0
   18.7810   35.8210  124.1070 C   0  0  0  0  0  0  0  0  0  0  0  0
   17.9590   34.4630  125.9550 C   0  0  0  0  0  0  0  0  0  0  0  0
   18.8900   34.7030  124.9060 C   0  0  0  0  0  0  0  0  0  0  0  0
   18.3700   33.2330  126.6170 C   0  0  0  0  0  0  0  0  0  0  0  0
   19.8510   33.6080  124.9310 C   0  0  0  0  0  0  0  0  0  0  0  0
   17.8690   32.5390  127.7000 C   0  0  0  0  0  0  0  0  0  0  0  0
   19.4990   32.7590  125.9690 C   0  0  0  0  0  0  0  0  0  0  0  0
   20.9620   33.3090  124.1630 C   0  0  0  0  0  0  0  0  0  0  0  0
   18.5240   31.3590  128.0990 C   0  0  0  0  0  0  0  0  0  0  0  0
   20.1880   31.6010  126.3200 C   0  0  0  0  0  0  0  0  0  0  0  0
   21.6920   32.1460  124.4670 C   0  0  0  0  0  0  0  0  0  0  0  0
   19.6700   30.8880  127.4200 C   0  0  0  0  0  0  0  0  0  0  0  0
   21.3170   31.2970  125.5330 C   0  0  0  0  0  0  0  0  0  0  0  0
  1  2  1  0  0  0  0
  2  4  2  0  0  0  0
  2  3  1  0  0  0  0
  5  6  1  0  0  0  0
  5  1  1  0  0  0  0
  6  7  2  0  0  0  0
  8  6  1  0  0  0  0
  8 10  1  0  0  0  0
  9  8  2  0  0  0  0
 11  9  1  0  0  0  0
 11 13  2  0  0  0  0
 12 10  2  0  0  0  0
 12 14  1  0  0  0  0
 13 15  1  0  0  0  0
 13 12  1  0  0  0  0
 14 16  1  0  0  0  0
 15 17  1  0  0  0  0
 16 19  2  0  0  0  0
 17 20  1  0  0  0  0
 17 14  2  0  0  0  0
 18 21  1  0  0  0  0
 18 15  2  0  0  0  0
 20 22  2  0  0  0  0
 21 23  2  0  0  0  0
 22 19  1  0  0  0  0
 23 20  1  0  0  0  0
M  END
>  <minimizedAffinity>
-8.78888226

>  <CNNscore>
0.932242334

>  <CNNaffinity>
6.11595678

$$$$

 OpenBabel08272601323D

 23 26  0  0  0  0  0  0  0  0999 V2000
   13.8800   37.0570  125.1180 C   0  0  0  0  0  0  0  0  0  0  0  0
   12.8130   37.1480  126.2030 C   0  0  0  0  0  0  0  0  0  0  0  0
   12.2450   36.0580  126.4870 O   0  0  0  0  0  0  0  0  0  0  0  0
   12.6290   38.2990  126.6890 O   0  0  0  0  0  0  0  0  0  0  0  0
   15.0640   37.9760  125.3770 C   0  0  0  0  0  0  0  0  0  0  0  0
   16.3690   37.3900  124.8670 C   0  0  0  0  0  0  0  0  0  0  0  0
   16.9620   37.9180  123.9230 O   0  0  0  0  0  0  0  0  0  0  0  0
   16.9280   36.1300  125.4520 C   0  0  0  0  0  0  0  0  0  0  0  0
   16.2710   35.5840  126.5850 C   0  0  0  0  0  0  0  0  0  0  0  0
   18.0630   35.4950  124.9330 C   0  0  0  0  0  0  0  0  0  0  0  0
   16.7330   34.4230  127.2210 C   0  0  0  0  0  0  0  0  0  0  0  0
   18.5090   34.3410  125.5560 C   0  0  0  0  0  0  0  0  0  0  0  0
   17.8540   33.8120  126.7020 C   0  0  0  0  0  0  0  0  0  0  0  0
   19.6230   33.4550  125.2520 C   0  0  0  0  0  0  0  0  0  0  0  0
   18.5850   32.6140  127.0940 C   0  0  0  0  0  0  0  0  0  0  0  0
   20.5740   33.4520  124.2510 C   0  0  0  0  0  0  0  0  0  0  0  0
   19.6300   32.4420  126.1980 C   0  0  0  0  0  0  0  0  0  0  0  0
   18.4180   31.6980  128.1160 C   0  0  0  0  0  0  0  0  0  0  0  0
   21.5300   32.4190  124.2400 C   0  0  0  0  0  0  0  0  0  0  0  0
   20.5470   31.3960  126.2350 C   0  0  0  0  0  0  0  0  0  0  0  0
   19.3210   30.6240  128.2080 C   0  0  0  0  0  0  0  0  0  0  0  0
   21.5240   31.4010  125.2190 C   0  0  0  0  0  0  0  0  0  0  0  0
   20.3760   30.4670  127.2810 C   0  0  0  0  0  0  0  0  0  0  0  0
  1  5  1  0  0  0  0
  1  2  1  0  0  0  0
  2  3  2  0  0  0  0
  2  4  1  0  0  0  0
  6  5  1  0  0  0  0
  6  8  1  0  0  0  0
  7  6  2  0  0  0  0
  8  9  1  0  0  0  0
  9 11  2  0  0  0  0
 10  8  2  0  0  0  0
 10 12  1  0  0  0  0
 12 13  2  0  0  0  0
 13 15  1  0  0  0  0
 13 11  1  0  0  0  0
 14 12  1  0  0  0  0
 14 17  1  0  0  0  0
 15 18  2  0  0  0  0
 16 14  2  0  0  0  0
 17 20  2  0  0  0  0
 17 15  1  0  0  0  0
 18 21  1  0  0  0  0
 19 16  1  0  0  0  0
 19 22  2  0  0  0  0
 20 23  1  0  0  0  0
 22 20  1  0  0  0  0
 23 21  2  0  0  0  0
M  END
>  <minimizedAffinity>
-8.64103985

>  <CNNscore>
0.677858472

>  <CNNaffinity>
5.52778769

$$$$

 OpenBabel08272601323D

 23 26  0  0  0  0  0  0  0  0999 V2000
   14.3740   37.7900  124.3200 C   0  0  0  0  0  0  0  0  0  0  0  0
   12.8980   37.6060  123.9820 C   0  0  0  0  0  0  0  0  0  0  0  0
   12.3530   36.5930  124.4990 O   0  0  0  0  0  0  0  0  0  0  0  0
   12.4000   38.4900  123.2300 O   0  0  0  0  0  0  0  0  0  0  0  0
   14.6140   38.0250  125.8030 C   0  0  0  0  0  0  0  0  0  0  0  0
   14.9810   36.7460  126.5350 C   0  0  0  0  0  0  0  0  0  0  0  0
   14.3030   36.3600  127.4910 O   0  0  0  0  0  0  0  0  0  0  0  0
   16.2010   35.9650  126.1580 C   0  0  0  0  0  0  0  0  0  0  0  0
   16.9970   36.4630  125.0940 C   0  0  0  0  0  0  0  0  0  0  0  0
   16.5660   34.7760  126.8020 C   0  0  0  0  0  0  0  0  0  0  0  0
   18.1430   35.7910  124.6490 C   0  0  0  0  0  0  0  0  0  0  0  0
   17.7060   34.1210  126.3690 C   0  0  0  0  0  0  0  0  0  0  0  0
   18.4880   34.6190  125.2900 C   0  0  0  0  0  0  0  0  0  0  0  0
   18.3500   32.9020  126.8350 C   0  0  0  0  0  0  0  0  0  0  0  0
   19.5930   33.6890  125.1000 C   0  0  0  0  0  0  0  0  0  0  0  0
   18.0600   32.0200  127.8580 C   0  0  0  0  0  0  0  0  0  0  0  0
   19.4680   32.6830  126.0470 C   0  0  0  0  0  0  0  0  0  0  0  0
   20.6560   33.6530  124.2160 C   0  0  0  0  0  0  0  0  0  0  0  0
   18.9130   30.9170  128.0510 C   0  0  0  0  0  0  0  0  0  0  0  0
   20.3460   31.6130  126.1920 C   0  0  0  0  0  0  0  0  0  0  0  0
   21.5710   32.5890  124.3120 C   0  0  0  0  0  0  0  0  0  0  0  0
   20.0430   30.7080  127.2300 C   0  0  0  0  0  0  0  0  0  0  0  0
   21.4250   31.5770  125.2870 C   0  0  0  0  0  0  0  0  0  0  0  0
  1  5  1  0  0  0  0
  2  1  1  0  0  0  0
  2  3  1  0  0  0  0
  4  2  2  0  0  0  0
  5  6  1  0  0  0  0
  6  7  2  0  0  0  0
  8  6  1  0  0  0  0
  8 10  1  0  0  0  0
  9  8  2  0  0  0  0
 11  9  1  0  0  0  0
 11 13  2  0  0  0  0
 12 10  2  0  0  0  0
 12 14  1  0  0  0  0
 13 12  1  0  0  0  0
 14 16  1  0  0  0  0
 15 13  1  0  0  0  0
 15 17  1  0  0  0  0
 16 19  2  0  0  0  0
 17 20  1  0  0  0  0
 17 14  2  0  0  0  0
 18 21  1  0  0  0  0
 18 15  2  0  0  0  0
 20 22  2  0  0  0  0
 21 23  2  0  0  0  0
 22 19  1  0  0  0  0
 23 20  1  0  0  0  0
M  END
>  <minimizedAffinity>
-8.5938282

>  <CNNscore>
0.6595456

>  <CNNaffinity>
5.48822594

$$$$

 OpenBabel08272601323D

 23 26  0  0  0  0  0  0  0  0999 V2000
   14.9030   37.7730  121.9710 C   0  0  0  0  0  0  0  0  0  0  0  0
   13.6570   38.5540  121.5680 C   0  0  0  0  0  0  0  0  0  0  0  0
   12.7030   38.5010  122.3910 O   0  0  0  0  0  0  0  0  0  0  0  0
   13.7320   39.1620  120.4640 O   0  0  0  0  0  0  0  0  0  0  0  0
   15.2780   37.9730  123.4310 C   0  0  0  0  0  0  0  0  0  0  0  0
   16.7400   37.6570  123.6970 C   0  0  0  0  0  0  0  0  0  0  0  0
   17.6280   38.3650  123.2150 O   0  0  0  0  0  0  0  0  0  0  0  0
   17.1350   36.4510  124.4920 C   0  0  0  0  0  0  0  0  0  0  0  0
   16.2990   36.0760  125.5760 C   0  0  0  0  0  0  0  0  0  0  0  0
   18.2860   35.7060  124.2120 C   0  0  0  0  0  0  0  0  0  0  0  0
   16.5970   34.9800  126.3950 C   0  0  0  0  0  0  0  0  0  0  0  0
   18.5710   34.6160  125.0160 C   0  0  0  0  0  0  0  0  0  0  0  0
   17.7360   34.2580  126.1110 C   0  0  0  0  0  0  0  0  0  0  0  0
   19.6580   33.6480  124.9740 C   0  0  0  0  0  0  0  0  0  0  0  0
   18.3310   33.0830  126.7340 C   0  0  0  0  0  0  0  0  0  0  0  0
   20.7330   33.4810  124.1230 C   0  0  0  0  0  0  0  0  0  0  0  0
   19.4740   32.7560  126.0180 C   0  0  0  0  0  0  0  0  0  0  0  0
   17.9710   32.3050  127.8180 C   0  0  0  0  0  0  0  0  0  0  0  0
   21.6140   32.4100  124.3620 C   0  0  0  0  0  0  0  0  0  0  0  0
   20.3100   31.6800  126.3010 C   0  0  0  0  0  0  0  0  0  0  0  0
   18.7840   31.2080  128.1560 C   0  0  0  0  0  0  0  0  0  0  0  0
   21.4130   31.5170  125.4380 C   0  0  0  0  0  0  0  0  0  0  0  0
   19.9420   30.8920  127.4100 C   0  0  0  0  0  0  0  0  0  0  0  0
  1  5  1  0  0  0  0
  2  1  1  0  0  0  0
  2  3  1  0  0  0  0
  4  2  2  0  0  0  0
  5  6  1  0  0  0  0
  6  8  1  0  0  0  0
  7  6  2  0  0  0  0
  8  9  1  0  0  0  0
  9 11  2  0  0  0  0
 10  8  2  0  0  0  0
 10 12  1  0  0  0  0
 12 13  2  0  0  0  0
 13 11  1  0  0  0  0
 13 15  1  0  0  0  0
 14 12  1  0  0  0  0
 14 17  1  0  0  0  0
 15 18  2  0  0  0  0
 16 19  1  0  0  0  0
 16 14  2  0  0  0  0
 17 20  2  0  0  0  0
 17 15  1  0  0  0  0
 18 21  1  0  0  0  0
 19 22  2  0  0  0  0
 20 23  1  0  0  0  0
 22 20  1  0  0  0  0
 23 21  2  0  0  0  0
M  END
>  <minimizedAffinity>
-9.16307354

>  <CNNscore>
0.632027924

>  <CNNaffinity>
5.17503595

$$$$

 OpenBabel08272601323D

 23 26  0  0  0  0  0  0  0  0999 V2000
   18.8840   38.6930  124.7080 C   0  0  0  0  0  0  0  0  0  0  0  0
   18.5580   39.7890  125.7160 C   0  0  0  0  0  0  0  0  0  0  0  0
   17.3320   40.0660  125.8270 O   0  0  0  0  0  0  0  0  0  0  0  0
   19.5500   40.2830  126.3200 O   0  0  0  0  0  0  0  0  0  0  0  0
   17.8740   38.6150  123.5730 C   0  0  0  0  0  0  0  0  0  0  0  0
   16.9160   37.4490  123.7360 C   0  0  0  0  0  0  0  0  0  0  0  0
   15.7880   37.4940  123.2360 O   0  0  0  0  0  0  0  0  0  0  0  0
   17.2900   36.2510  124.5550 C   0  0  0  0  0  0  0  0  0  0  0  0
   16.4530   35.9180  125.6510 C   0  0  0  0  0  0  0  0  0  0  0  0
   18.4230   35.4750  124.2840 C   0  0  0  0  0  0  0  0  0  0  0  0
   16.7320   34.8330  126.4930 C   0  0  0  0  0  0  0  0  0  0  0  0
   18.6890   34.3970  125.1100 C   0  0  0  0  0  0  0  0  0  0  0  0
   17.8540   34.0810  126.2170 C   0  0  0  0  0  0  0  0  0  0  0  0
   19.7540   33.4040  125.0820 C   0  0  0  0  0  0  0  0  0  0  0  0
   18.4270   32.9070  126.8620 C   0  0  0  0  0  0  0  0  0  0  0  0
   20.8200   33.1960  124.2280 C   0  0  0  0  0  0  0  0  0  0  0  0
   19.5570   32.5400  126.1470 C   0  0  0  0  0  0  0  0  0  0  0  0
   18.0570   32.1600  127.9650 C   0  0  0  0  0  0  0  0  0  0  0  0
   21.6790   32.1110  124.4850 C   0  0  0  0  0  0  0  0  0  0  0  0
   20.3720   31.4520  126.4470 C   0  0  0  0  0  0  0  0  0  0  0  0
   18.8480   31.0530  128.3210 C   0  0  0  0  0  0  0  0  0  0  0  0
   21.4650   31.2460  125.5820 C   0  0  0  0  0  0  0  0  0  0  0  0
   19.9940   30.6960  127.5750 C   0  0  0  0  0  0  0  0  0  0  0  0
  1  2  1  0  0  0  0
  2  3  2  0  0  0  0
  2  4  1  0  0  0  0
  5  6  1  0  0  0  0
  5  1  1  0  0  0  0
  6  8  1  0  0  0  0
  7  6  2  0  0  0  0
  8  9  1  0  0  0  0
  9 11  2  0  0  0  0
 10  8  2  0  0  0  0
 10 12  1  0  0  0  0
 12 13  2  0  0  0  0
 13 11  1  0  0  0  0
 13 15  1  0  0  0  0
 14 12  1  0  0  0  0
 14 17  1  0  0  0  0
 15 18  2  0  0  0  0
 16 19  1  0  0  0  0
 16 14  2  0  0  0  0
 17 20  2  0  0  0  0
 17 15  1  0  0  0  0
 18 21  1  0  0  0  0
 19 22  2  0  0  0  0
 20 23  1  0  0  0  0
 22 20  1  0  0  0  0
 23 21  2  0  0  0  0
M  END
>  <minimizedAffinity>
-8.49991035

>  <CNNscore>
0.614100397

>  <CNNaffinity>
5.47025156

$$$$

 OpenBabel08272601323D

 23 26  0  0  0  0  0  0  0  0999 V2000
   17.6880   38.9170  125.1270 C   0  0  0  0  0  0  0  0  0  0  0  0
   18.2620   40.0310  125.9960 C   0  0  0  0  0  0  0  0  0  0  0  0
   17.4440   40.5580  126.7990 O   0  0  0  0  0  0  0  0  0  0  0  0
   19.4840   40.2880  125.8100 O   0  0  0  0  0  0  0  0  0  0  0  0
   16.3290   38.4340  125.6090 C   0  0  0  0  0  0  0  0  0  0  0  0
   16.0340   37.0120  125.1650 C   0  0  0  0  0  0  0  0  0  0  0  0
   14.8920   36.6900  124.8240 O   0  0  0  0  0  0  0  0  0  0  0  0
   17.0990   35.9590  125.1900 C   0  0  0  0  0  0  0  0  0  0  0  0
   18.0990   36.0130  124.1850 C   0  0  0  0  0  0  0  0  0  0  0  0
   17.1300   34.9390  126.1480 C   0  0  0  0  0  0  0  0  0  0  0  0
   19.1230   35.0600  124.1070 C   0  0  0  0  0  0  0  0  0  0  0  0
   18.1490   34.0050  126.0750 C   0  0  0  0  0  0  0  0  0  0  0  0
   19.1380   34.0570  125.0530 C   0  0  0  0  0  0  0  0  0  0  0  0
   18.4650   32.8590  126.9160 C   0  0  0  0  0  0  0  0  0  0  0  0
   20.0380   32.9330  125.2740 C   0  0  0  0  0  0  0  0  0  0  0  0
   17.8810   32.3430  128.0560 C   0  0  0  0  0  0  0  0  0  0  0  0
   19.5960   32.2500  126.3970 C   0  0  0  0  0  0  0  0  0  0  0  0
   21.1650   32.4820  124.6120 C   0  0  0  0  0  0  0  0  0  0  0  0
   18.4550   31.2000  128.6420 C   0  0  0  0  0  0  0  0  0  0  0  0
   20.2080   31.1210  126.9350 C   0  0  0  0  0  0  0  0  0  0  0  0
   21.8200   31.3390  125.1060 C   0  0  0  0  0  0  0  0  0  0  0  0
   19.6040   30.5890  128.0920 C   0  0  0  0  0  0  0  0  0  0  0  0
   21.3530   30.6610  126.2550 C   0  0  0  0  0  0  0  0  0  0  0  0
  1  5  1  0  0  0  0
  1  2  1  0  0  0  0
  2  3  1  0  0  0  0
  4  2  2  0  0  0  0
  6  8  1  0  0  0  0
  6  5  1  0  0  0  0
  7  6  2  0  0  0  0
  8 10  1  0  0  0  0
  9  8  2  0  0  0  0
 11  9  1  0  0  0  0
 11 13  2  0  0  0  0
 12 10  2  0  0  0  0
 12 14  1  0  0  0  0
 13 15  1  0  0  0  0
 13 12  1  0  0  0  0
 14 16  1  0  0  0  0
 15 17  1  0  0  0  0
 16 19  2  0  0  0  0
 17 14  2  0  0  0  0
 17 20  1  0  0  0  0
 18 21  1  0  0  0  0
 18 15  2  0  0  0  0
 20 22  2  0  0  0  0
 21 23  2  0  0  0  0
 22 19  1  0  0  0  0
 23 20  1  0  0  0  0
M  END
>  <minimizedAffinity>
-7.6824894

>  <CNNscore>
0.563655734

>  <CNNaffinity>
5.50033617

$$$$

 OpenBabel08272601323D

 23 26  0  0  0  0  0  0  0  0999 V2000
   19.9390   31.6800  127.8590 C   0  0  0  0  0  0  0  0  0  0  0  0
   19.6030   30.3570  128.5380 C   0  0  0  0  0  0  0  0  0  0  0  0
   20.2470   30.1200  129.5960 O   0  0  0  0  0  0  0  0  0  0  0  0
   18.7200   29.6610  127.9630 O   0  0  0  0  0  0  0  0  0  0  0  0
   20.5090   31.4980  126.4610 C   0  0  0  0  0  0  0  0  0  0  0  0
   19.5710   32.0180  125.3860 C   0  0  0  0  0  0  0  0  0  0  0  0
   19.0200   31.2340  124.6080 O   0  0  0  0  0  0  0  0  0  0  0  0
   19.3430   33.4870  125.2060 C   0  0  0  0  0  0  0  0  0  0  0  0
   20.4140   34.2580  124.6820 C   0  0  0  0  0  0  0  0  0  0  0  0
   18.1360   34.1120  125.5420 C   0  0  0  0  0  0  0  0  0  0  0  0
   20.3090   35.6430  124.5010 C   0  0  0  0  0  0  0  0  0  0  0  0
   18.0320   35.4790  125.3500 C   0  0  0  0  0  0  0  0  0  0  0  0
   19.1170   36.2450  124.8410 C   0  0  0  0  0  0  0  0  0  0  0  0
   16.9270   36.4000  125.5770 C   0  0  0  0  0  0  0  0  0  0  0  0
   18.6670   37.6300  124.7770 C   0  0  0  0  0  0  0  0  0  0  0  0
   15.6350   36.2210  126.0290 C   0  0  0  0  0  0  0  0  0  0  0  0
   17.3540   37.6700  125.2240 C   0  0  0  0  0  0  0  0  0  0  0  0
   19.2750   38.8030  124.3700 C   0  0  0  0  0  0  0  0  0  0  0  0
   14.7990   37.3490  126.1250 C   0  0  0  0  0  0  0  0  0  0  0  0
   16.5720   38.8190  125.2970 C   0  0  0  0  0  0  0  0  0  0  0  0
   18.5350   39.9970  124.4300 C   0  0  0  0  0  0  0  0  0  0  0  0
   15.2560   38.6370  125.7680 C   0  0  0  0  0  0  0  0  0  0  0  0
   17.1970   40.0140  124.8870 C   0  0  0  0  0  0  0  0  0  0  0  0
  1  2  1  0  0  0  0
  2  3  1  0  0  0  0
  4  2  2  0  0  0  0
  5  1  1  0  0  0  0
  6  5  1  0  0  0  0
  7  6  2  0  0  0  0
  8  6  1  0  0  0  0
  8 10  1  0  0  0  0
  9  8  2  0  0  0  0
 11  9  1  0  0  0  0
 11 13  2  0  0  0  0
 12 10  2  0  0  0  0
 12 14  1  0  0  0  0
 13 12  1  0  0  0  0
 14 16  1  0  0  0  0
 15 13  1  0  0  0  0
 15 17  1  0  0  0  0
 16 19  2  0  0  0  0
 17 20  1  0  0  0  0
 17 14  2  0  0  0  0
 18 21  1  0  0  0  0
 18 15  2  0  0  0  0
 20 22  2  0  0  0  0
 21 23  2  0  0  0  0
 22 19  1  0  0  0  0
 23 20  1  0  0  0  0
M  END
>  <minimizedAffinity>
-8.64049911

>  <CNNscore>
0.298237681

>  <CNNaffinity>
5.14716673

$$$$

 OpenBabel08272601323D

 23 26  0  0  0  0  0  0  0  0999 V2000
   14.7410   35.4630  126.0670 C   0  0  0  0  0  0  0  0  0  0  0  0
   14.2600   36.3030  127.2450 C   0  0  0  0  0  0  0  0  0  0  0  0
   14.1560   35.6810  128.3380 O   0  0  0  0  0  0  0  0  0  0  0  0
   14.0300   37.5170  126.9870 O   0  0  0  0  0  0  0  0  0  0  0  0
   16.2570   35.3600  125.9950 C   0  0  0  0  0  0  0  0  0  0  0  0
   16.8150   35.9820  124.7280 C   0  0  0  0  0  0  0  0  0  0  0  0
   17.5870   35.3420  124.0080 O   0  0  0  0  0  0  0  0  0  0  0  0
   16.4960   37.3980  124.3580 C   0  0  0  0  0  0  0  0  0  0  0  0
   15.8260   37.6190  123.1270 C   0  0  0  0  0  0  0  0  0  0  0  0
   16.8420   38.4860  125.1680 C   0  0  0  0  0  0  0  0  0  0  0  0
   15.5070   38.9080  122.6790 C   0  0  0  0  0  0  0  0  0  0  0  0
   16.5140   39.7580  124.7280 C   0  0  0  0  0  0  0  0  0  0  0  0
   15.8580   39.9710  123.4840 C   0  0  0  0  0  0  0  0  0  0  0  0
   16.7130   41.0660  125.3360 C   0  0  0  0  0  0  0  0  0  0  0  0
   15.6770   41.4100  123.3400 C   0  0  0  0  0  0  0  0  0  0  0  0
   17.2630   41.4680  126.5380 C   0  0  0  0  0  0  0  0  0  0  0  0
   16.2020   42.0190  124.4700 C   0  0  0  0  0  0  0  0  0  0  0  0
   15.1110   42.1960  122.3530 C   0  0  0  0  0  0  0  0  0  0  0  0
   17.2940   42.8440  126.8310 C   0  0  0  0  0  0  0  0  0  0  0  0
   16.2040   43.3900  124.7080 C   0  0  0  0  0  0  0  0  0  0  0  0
   15.0930   43.5900  122.5360 C   0  0  0  0  0  0  0  0  0  0  0  0
   16.7750   43.8000  125.9300 C   0  0  0  0  0  0  0  0  0  0  0  0
   15.6300   44.1890  123.6980 C   0  0  0  0  0  0  0  0  0  0  0  0
  1  2  1  0  0  0  0
  2  3  1  0  0  0  0
  4  2  2  0  0  0  0
  5  1  1  0  0  0  0
  6  5  1  0  0  0  0
  7  6  2  0  0  0  0
  8  6  1  0  0  0  0
  8 10  1  0  0  0  0
  9  8  2  0  0  0  0
 11  9  1  0  0  0  0
 11 13  2  0  0  0  0
 12 10  2  0  0  0  0
 12 14  1  0  0  0  0
 13 12  1  0  0  0  0
 14 16  1  0  0  0  0
 15 13  1  0  0  0  0
 15 17  1  0  0  0  0
 16 19  2  0  0  0  0
 17 20  1  0  0  0  0
 17 14  2  0  0  0  0
 18 21  1  0  0  0  0
 18 15  2  0  0  0  0
 20 22  2  0  0  0  0
 21 23  2  0  0  0  0
 22 19  1  0  0  0  0
 23 20  1  0  0  0  0
M  END
>  <minimizedAffinity>
-7.42530251

>  <CNNscore>
0.259344012

>  <CNNaffinity>
4.31386566

$$$$

 OpenBabel08272601323D

 23 26  0  0  0  0  0  0  0  0999 V2000
   20.0600   31.6670  128.1080 C   0  0  0  0  0  0  0  0  0  0  0  0
   19.6160   30.3710  128.7770 C   0  0  0  0  0  0  0  0  0  0  0  0
   18.6690   29.7690  128.2010 O   0  0  0  0  0  0  0  0  0  0  0  0
   20.2500   30.0540  129.8220 O   0  0  0  0  0  0  0  0  0  0  0  0
   20.8730   31.4300  126.8450 C   0  0  0  0  0  0  0  0  0  0  0  0
   20.2160   32.0350  125.6170 C   0  0  0  0  0  0  0  0  0  0  0  0
   20.5200   31.6390  124.4880 O   0  0  0  0  0  0  0  0  0  0  0  0
   19.2380   33.1620  125.7420 C   0  0  0  0  0  0  0  0  0  0  0  0
   18.0090   32.8950  126.4010 C   0  0  0  0  0  0  0  0  0  0  0  0
   19.4880   34.4410  125.2310 C   0  0  0  0  0  0  0  0  0  0  0  0
   17.0180   33.8750  126.5450 C   0  0  0  0  0  0  0  0  0  0  0  0
   18.5130   35.4100  125.3860 C   0  0  0  0  0  0  0  0  0  0  0  0
   17.2770   35.1280  126.0320 C   0  0  0  0  0  0  0  0  0  0  0  0
   18.4790   36.8120  124.9930 C   0  0  0  0  0  0  0  0  0  0  0  0
   16.4960   36.3580  126.0130 C   0  0  0  0  0  0  0  0  0  0  0  0
   19.3960   37.6330  124.3670 C   0  0  0  0  0  0  0  0  0  0  0  0
   17.2560   37.3330  125.3850 C   0  0  0  0  0  0  0  0  0  0  0  0
   15.2380   36.6850  126.4840 C   0  0  0  0  0  0  0  0  0  0  0  0
   19.0430   38.9750  124.1380 C   0  0  0  0  0  0  0  0  0  0  0  0
   16.8540   38.6510  125.1860 C   0  0  0  0  0  0  0  0  0  0  0  0
   14.7760   38.0010  126.3030 C   0  0  0  0  0  0  0  0  0  0  0  0
   17.7880   39.4850  124.5370 C   0  0  0  0  0  0  0  0  0  0  0  0
   15.5700   38.9800  125.6630 C   0  0  0  0  0  0  0  0  0  0  0  0
  1  2  1  0  0  0  0
  2  4  1  0  0  0  0
  3  2  2  0  0  0  0
  5  1  1  0  0  0  0
  6  8  1  0  0  0  0
  6  5  1  0  0  0  0
  7  6  2  0  0  0  0
  8  9  1  0  0  0  0
  9 11  2  0  0  0  0
 10 12  1  0  0  0  0
 10  8  2  0  0  0  0
 12 13  2  0  0  0  0
 13 11  1  0  0  0  0
 14 17  1  0  0  0  0
 14 12  1  0  0  0  0
 15 13  1  0  0  0  0
 15 18  2  0  0  0  0
 16 14  2  0  0  0  0
 17 15  1  0  0  0  0
 19 16  1  0  0  0  0
 19 22  2  0  0  0  0
 20 17  2  0  0  0  0
 20 23  1  0  0  0  0
 21 18  1  0  0  0  0
 22 20  1  0  0  0  0
 23 21  2  0  0  0  0
M  END
>  <minimizedAffinity>
-7.71808767

>  <CNNscore>
0.255251139

>  <CNNaffinity>
5.22724199

$$$$
