
 OpenBabel08262621373D

 29 32  0  0  1  0  0  0  0  0999 V2000
   13.6650   38.3360  125.9920 C   0  0  0  0  0  0  0  0  0  0  0  0
   13.9260   36.8170  125.9790 C   0  0  0  0  0  0  0  0  0  0  0  0
   12.9440   36.1630  125.0010 C   0  0  0  0  0  0  0  0  0  0  0  0
   15.3970   36.5630  125.5730 C   0  0  0  0  0  0  0  0  0  0  0  0
   16.1990   37.7170  125.0730 N   0  0  0  0  0  0  0  0  0  0  0  0
   15.9350   38.9340  125.8830 C   0  0  0  0  0  0  0  0  0  0  0  0
   15.8530   37.9640  123.6600 C   0  0  0  0  0  0  0  0  0  0  0  0
   16.6290   40.2030  125.3500 C   0  0  0  0  0  0  0  0  0  0  0  0
   16.5870   39.1890  123.0940 C   0  0  0  0  0  0  0  0  0  0  0  0
   16.2500   40.3940  123.9040 N   0  0  0  0  0  0  0  0  0  0  0  0
   15.5020   41.4370  123.5030 C   0  0  2  0  0  0  0  0  0  0  0  0
   14.7660   41.3430  122.3970 N   0  0  0  0  0  0  0  0  0  0  0  0
   15.6450   42.7340  124.2180 C   0  0  0  0  0  0  0  0  0  0  0  0
   13.8530   42.2600  121.9530 C   0  0  0  0  0  0  0  0  0  0  0  0
   16.9180   43.2260  124.5690 C   0  0  0  0  0  0  0  0  0  0  0  0
   14.5380   43.5180  124.5420 C   0  0  0  0  0  0  0  0  0  0  0  0
   13.5320   42.2380  120.5870 C   0  0  0  0  0  0  0  0  0  0  0  0
   13.1340   43.1380  122.7790 C   0  0  0  0  0  0  0  0  0  0  0  0
   17.0590   44.4180  125.2860 C   0  0  0  0  0  0  0  0  0  0  0  0
   13.2810   43.1520  124.1460 O   0  0  0  0  0  0  0  0  0  0  0  0
   14.6660   44.7000  125.2740 C   0  0  0  0  0  0  0  0  0  0  0  0
   12.5560   43.0890  120.0590 C   0  0  0  0  0  0  0  0  0  0  0  0
   12.1430   43.9780  122.2580 C   0  0  0  0  0  0  0  0  0  0  0  0
   15.9310   45.1470  125.6490 C   0  0  0  0  0  0  0  0  0  0  0  0
   11.8630   43.9600  120.8950 C   0  0  0  0  0  0  0  0  0  0  0  0
   14.8220   40.4930  121.8640 H   0  0  0  0  0  0  0  0  0  0  0  0
   13.7020   36.4340  127.4640 C   0  0  0  0  0  0  0  0  0  0  0  0
   14.6240   35.7510  127.9990 O   0  0  0  0  0  0  0  0  0  0  0  0
   12.5960   36.7800  127.9630 O   0  0  0  0  0  0  0  0  0  0  0  0
  2  1  1  0  0  0  0
  2 27  1  0  0  0  0
  3  2  1  0  0  0  0
  4  2  1  0  0  0  0
  5  4  1  0  0  0  0
  5  6  1  0  0  0  0
  7  5  1  0  0  0  0
  8  6  1  0  0  0  0
  9  7  1  0  0  0  0
  9 10  1  0  0  0  0
 10  8  1  0  0  0  0
 11 10  1  6  0  0  0
 11 13  1  0  0  0  0
 12 11  1  0  0  0  0
 13 16  2  0  0  0  0
 13 15  1  0  0  0  0
 14 12  1  0  0  0  0
 14 18  1  0  0  0  0
 15 19  2  0  0  0  0
 16 21  1  0  0  0  0
 17 14  2  0  0  0  0
 18 20  1  0  0  0  0
 19 24  1  0  0  0  0
 20 16  1  0  0  0  0
 21 24  2  0  0  0  0
 22 17  1  0  0  0  0
 22 25  2  0  0  0  0
 23 18  2  0  0  0  0
 25 23  1  0  0  0  0
 26 12  1  0  0  0  0
 27 29  2  0  0  0  0
 27 28  1  0  0  0  0
M  END
>  <minimizedAffinity>
-8.00197887

>  <CNNscore>
0.436206728

>  <CNNaffinity>
5.4249444

$$$$

 OpenBabel08262621373D

 29 32  0  0  1  0  0  0  0  0999 V2000
   13.0680   38.4160  125.8490 C   0  0  0  0  0  0  0  0  0  0  0  0
   13.5930   36.9680  125.7790 C   0  0  0  0  0  0  0  0  0  0  0  0
   12.6160   36.1370  124.9410 C   0  0  0  0  0  0  0  0  0  0  0  0
   15.0130   36.9770  125.1660 C   0  0  0  0  0  0  0  0  0  0  0  0
   15.4540   38.1960  124.4270 N   0  0  0  0  0  0  0  0  0  0  0  0
   15.4030   39.3930  125.3060 C   0  0  0  0  0  0  0  0  0  0  0  0
   14.5760   38.3900  123.2560 C   0  0  0  0  0  0  0  0  0  0  0  0
   15.7200   40.7160  124.5810 C   0  0  0  0  0  0  0  0  0  0  0  0
   14.9220   39.6730  122.4840 C   0  0  0  0  0  0  0  0  0  0  0  0
   14.8060   40.8500  123.3900 N   0  0  0  0  0  0  0  0  0  0  0  0
   13.8680   41.8110  123.3280 C   0  0  2  0  0  0  0  0  0  0  0  0
   12.7800   41.6320  122.5810 N   0  0  0  0  0  0  0  0  0  0  0  0
   14.1480   43.1250  123.9660 C   0  0  0  0  0  0  0  0  0  0  0  0
   11.6850   42.4510  122.5370 C   0  0  0  0  0  0  0  0  0  0  0  0
   15.4070   43.7420  123.8210 C   0  0  0  0  0  0  0  0  0  0  0  0
   13.1780   43.8040  124.7030 C   0  0  0  0  0  0  0  0  0  0  0  0
   10.8730   42.3800  121.3940 C   0  0  0  0  0  0  0  0  0  0  0  0
   11.2530   43.2670  123.5950 C   0  0  0  0  0  0  0  0  0  0  0  0
   15.6960   44.9510  124.4600 C   0  0  0  0  0  0  0  0  0  0  0  0
   11.9050   43.3130  124.8040 O   0  0  0  0  0  0  0  0  0  0  0  0
   13.4620   45.0020  125.3620 C   0  0  0  0  0  0  0  0  0  0  0  0
    9.6950   43.1260  121.2950 C   0  0  0  0  0  0  0  0  0  0  0  0
   10.0640   44.0000  123.5080 C   0  0  0  0  0  0  0  0  0  0  0  0
   14.7270   45.5740  125.2410 C   0  0  0  0  0  0  0  0  0  0  0  0
    9.2920   43.9380  122.3520 C   0  0  0  0  0  0  0  0  0  0  0  0
   12.7090   40.7840  122.0460 H   0  0  0  0  0  0  0  0  0  0  0  0
   13.6540   36.5700  127.2750 C   0  0  0  0  0  0  0  0  0  0  0  0
   14.6940   35.9430  127.6340 O   0  0  0  0  0  0  0  0  0  0  0  0
   12.6330   36.8470  127.9630 O   0  0  0  0  0  0  0  0  0  0  0  0
  2  1  1  0  0  0  0
  2 27  1  0  0  0  0
  3  2  1  0  0  0  0
  4  2  1  0  0  0  0
  5  4  1  0  0  0  0
  5  6  1  0  0  0  0
  7  5  1  0  0  0  0
  8  6  1  0  0  0  0
  9  7  1  0  0  0  0
  9 10  1  0  0  0  0
 10  8  1  0  0  0  0
 11 10  1  6  0  0  0
 11 13  1  0  0  0  0
 12 11  1  0  0  0  0
 13 16  1  0  0  0  0
 14 12  1  0  0  0  0
 14 18  1  0  0  0  0
 15 13  2  0  0  0  0
 15 19  1  0  0  0  0
 16 20  1  0  0  0  0
 16 21  2  0  0  0  0
 17 14  2  0  0  0  0
 18 20  1  0  0  0  0
 19 24  2  0  0  0  0
 22 17  1  0  0  0  0
 22 25  2  0  0  0  0
 23 18  2  0  0  0  0
 24 21  1  0  0  0  0
 25 23  1  0  0  0  0
 26 12  1  0  0  0  0
 27 28  2  0  0  0  0
 27 29  1  0  0  0  0
M  END
>  <minimizedAffinity>
-7.44336987

>  <CNNscore>
0.426124632

>  <CNNaffinity>
5.34982061

$$$$

 OpenBabel08262621373D

 29 32  0  0  1  0  0  0  0  0999 V2000
   13.3480   35.8100  125.3570 C   0  0  0  0  0  0  0  0  0  0  0  0
   14.0310   36.9540  126.1330 C   0  0  0  0  0  0  0  0  0  0  0  0
   15.5400   36.8820  125.8750 C   0  0  0  0  0  0  0  0  0  0  0  0
   13.4320   38.3030  125.6710 C   0  0  0  0  0  0  0  0  0  0  0  0
   13.8040   38.8130  124.3190 N   0  0  0  0  0  0  0  0  0  0  0  0
   14.4530   40.1450  124.4170 C   0  0  0  0  0  0  0  0  0  0  0  0
   12.5860   38.9030  123.4900 C   0  0  0  0  0  0  0  0  0  0  0  0
   14.7520   40.7980  123.0530 C   0  0  0  0  0  0  0  0  0  0  0  0
   12.8780   39.4920  122.1010 C   0  0  0  0  0  0  0  0  0  0  0  0
   13.4780   40.8480  122.2480 N   0  0  0  0  0  0  0  0  0  0  0  0
   12.8910   42.0150  121.9320 C   0  0  2  0  0  0  0  0  0  0  0  0
   11.5810   42.0590  121.6960 N   0  0  0  0  0  0  0  0  0  0  0  0
   13.7500   43.2050  121.6890 C   0  0  0  0  0  0  0  0  0  0  0  0
   10.8300   43.1870  121.5100 C   0  0  0  0  0  0  0  0  0  0  0  0
   14.9310   43.0960  120.9270 C   0  0  0  0  0  0  0  0  0  0  0  0
   13.4130   44.4660  122.1780 C   0  0  0  0  0  0  0  0  0  0  0  0
    9.6130   43.0440  120.8250 C   0  0  0  0  0  0  0  0  0  0  0  0
   11.1310   44.4480  122.0500 C   0  0  0  0  0  0  0  0  0  0  0  0
   15.7720   44.1970  120.7370 C   0  0  0  0  0  0  0  0  0  0  0  0
   12.2330   44.6660  122.8420 O   0  0  0  0  0  0  0  0  0  0  0  0
   14.2550   45.5680  122.0110 C   0  0  0  0  0  0  0  0  0  0  0  0
    8.7470   44.1290  120.6530 C   0  0  0  0  0  0  0  0  0  0  0  0
   10.2580   45.5310  121.8970 C   0  0  0  0  0  0  0  0  0  0  0  0
   15.4390   45.4290  121.2910 C   0  0  0  0  0  0  0  0  0  0  0  0
    9.0720   45.3730  121.1880 C   0  0  0  0  0  0  0  0  0  0  0  0
   11.0670   41.1960  121.7250 H   0  0  0  0  0  0  0  0  0  0  0  0
   13.6160   36.6520  127.5950 C   0  0  0  0  0  0  0  0  0  0  0  0
   14.2350   35.7000  128.1560 O   0  0  0  0  0  0  0  0  0  0  0  0
   12.6590   37.3370  128.0510 O   0  0  0  0  0  0  0  0  0  0  0  0
  1  2  1  0  0  0  0
  2 27  1  0  0  0  0
  3  2  1  0  0  0  0
  4  2  1  0  0  0  0
  5  6  1  0  0  0  0
  5  4  1  0  0  0  0
  7  5  1  0  0  0  0
  8  6  1  0  0  0  0
  9 10  1  0  0  0  0
  9  7  1  0  0  0  0
 10  8  1  0  0  0  0
 11 10  1  6  0  0  0
 12 26  1  0  0  0  0
 12 11  1  0  0  0  0
 13 11  1  0  0  0  0
 13 16  1  0  0  0  0
 14 12  1  0  0  0  0
 14 18  1  0  0  0  0
 15 13  2  0  0  0  0
 16 20  1  0  0  0  0
 17 14  2  0  0  0  0
 18 20  1  0  0  0  0
 19 15  1  0  0  0  0
 19 24  2  0  0  0  0
 21 16  2  0  0  0  0
 22 17  1  0  0  0  0
 22 25  2  0  0  0  0
 23 18  2  0  0  0  0
 24 21  1  0  0  0  0
 25 23  1  0  0  0  0
 27 29  2  0  0  0  0
 27 28  1  0  0  0  0
M  END
>  <minimizedAffinity>
-7.03483963

>  <CNNscore>
0.356496423

>  <CNNaffinity>
4.83897066

$$$$

 OpenBabel08262621373D

 29 32  0  0  1  0  0  0  0  0999 V2000
   13.7580   38.0060  125.8560 C   0  0  0  0  0  0  0  0  0  0  0  0
   13.4900   36.5030  126.0720 C   0  0  0  0  0  0  0  0  0  0  0  0
   12.1530   36.1490  125.4150 C   0  0  0  0  0  0  0  0  0  0  0  0
   14.6610   35.6920  125.4670 C   0  0  0  0  0  0  0  0  0  0  0  0
   15.7490   36.4380  124.7710 N   0  0  0  0  0  0  0  0  0  0  0  0
   16.3690   37.4370  125.6800 C   0  0  0  0  0  0  0  0  0  0  0  0
   15.1850   37.1140  123.5860 C   0  0  0  0  0  0  0  0  0  0  0  0
   17.4170   38.3390  124.9970 C   0  0  0  0  0  0  0  0  0  0  0  0
   16.2340   37.9660  122.8560 C   0  0  0  0  0  0  0  0  0  0  0  0
   16.7890   38.9870  123.7900 N   0  0  0  0  0  0  0  0  0  0  0  0
   16.5800   40.3130  123.7310 C   0  0  2  0  0  0  0  0  0  0  0  0
   15.6150   40.8030  122.9550 N   0  0  0  0  0  0  0  0  0  0  0  0
   17.5460   41.2190  124.4100 C   0  0  0  0  0  0  0  0  0  0  0  0
   15.1960   42.1040  122.9080 C   0  0  0  0  0  0  0  0  0  0  0  0
   18.9340   40.9950  124.3100 C   0  0  0  0  0  0  0  0  0  0  0  0
   17.1220   42.3270  125.1430 C   0  0  0  0  0  0  0  0  0  0  0  0
   14.5310   42.5240  121.7460 C   0  0  0  0  0  0  0  0  0  0  0  0
   15.2790   43.0100  123.9770 C   0  0  0  0  0  0  0  0  0  0  0  0
   19.8470   41.8100  124.9870 C   0  0  0  0  0  0  0  0  0  0  0  0
   15.7970   42.6610  125.2020 O   0  0  0  0  0  0  0  0  0  0  0  0
   18.0240   43.1350  125.8380 C   0  0  0  0  0  0  0  0  0  0  0  0
   14.0050   43.8160  121.6390 C   0  0  0  0  0  0  0  0  0  0  0  0
   14.7360   44.2970  123.8820 C   0  0  0  0  0  0  0  0  0  0  0  0
   19.3900   42.8710  125.7610 C   0  0  0  0  0  0  0  0  0  0  0  0
   14.1090   44.7020  122.7080 C   0  0  0  0  0  0  0  0  0  0  0  0
   15.0850   40.1560  122.3970 H   0  0  0  0  0  0  0  0  0  0  0  0
   13.4960   36.3880  127.6180 C   0  0  0  0  0  0  0  0  0  0  0  0
   14.3660   35.6090  128.1060 O   0  0  0  0  0  0  0  0  0  0  0  0
   12.5900   37.0250  128.2220 O   0  0  0  0  0  0  0  0  0  0  0  0
  1  2  1  0  0  0  0
  2 27  1  0  0  0  0
  3  2  1  0  0  0  0
  4  2  1  0  0  0  0
  5  4  1  0  0  0  0
  5  6  1  0  0  0  0
  7  5  1  0  0  0  0
  8  6  1  0  0  0  0
  9  7  1  0  0  0  0
  9 10  1  0  0  0  0
 10  8  1  0  0  0  0
 11 10  1  6  0  0  0
 11 13  1  0  0  0  0
 12 11  1  0  0  0  0
 13 16  1  0  0  0  0
 14 12  1  0  0  0  0
 14 18  1  0  0  0  0
 15 13  2  0  0  0  0
 15 19  1  0  0  0  0
 16 20  1  0  0  0  0
 16 21  2  0  0  0  0
 17 14  2  0  0  0  0
 18 20  1  0  0  0  0
 19 24  2  0  0  0  0
 22 17  1  0  0  0  0
 22 25  2  0  0  0  0
 23 18  2  0  0  0  0
 24 21  1  0  0  0  0
 25 23  1  0  0  0  0
 26 12  1  0  0  0  0
 27 28  2  0  0  0  0
 27 29  1  0  0  0  0
M  END
>  <minimizedAffinity>
-7.21709347

>  <CNNscore>
0.331494927

>  <CNNaffinity>
5.50379801

$$$$

 OpenBabel08262621373D

 29 32  0  0  1  0  0  0  0  0999 V2000
   13.3240   36.1570  125.2740 C   0  0  0  0  0  0  0  0  0  0  0  0
   14.4300   36.6850  126.2100 C   0  0  0  0  0  0  0  0  0  0  0  0
   15.6910   35.8410  125.9960 C   0  0  0  0  0  0  0  0  0  0  0  0
   14.6800   38.1800  125.9000 C   0  0  0  0  0  0  0  0  0  0  0  0
   14.2220   38.7120  124.5840 N   0  0  0  0  0  0  0  0  0  0  0  0
   14.5330   40.1600  124.4630 C   0  0  0  0  0  0  0  0  0  0  0  0
   12.7670   38.4950  124.4600 C   0  0  0  0  0  0  0  0  0  0  0  0
   13.9760   40.8150  123.1830 C   0  0  0  0  0  0  0  0  0  0  0  0
   12.2060   39.0870  123.1570 C   0  0  0  0  0  0  0  0  0  0  0  0
   12.4950   40.5480  123.1040 N   0  0  0  0  0  0  0  0  0  0  0  0
   11.5940   41.5400  123.2090 C   0  0  2  0  0  0  0  0  0  0  0  0
   10.3620   41.2780  123.6430 N   0  0  0  0  0  0  0  0  0  0  0  0
   11.9460   42.8840  122.6770 C   0  0  0  0  0  0  0  0  0  0  0  0
    9.3950   42.2000  123.9370 C   0  0  0  0  0  0  0  0  0  0  0  0
   12.5930   43.0180  121.4320 C   0  0  0  0  0  0  0  0  0  0  0  0
   11.6310   44.0520  123.3700 C   0  0  0  0  0  0  0  0  0  0  0  0
    8.0620   41.7610  123.9200 C   0  0  0  0  0  0  0  0  0  0  0  0
    9.6450   43.5140  124.3640 C   0  0  0  0  0  0  0  0  0  0  0  0
   12.9740   44.2720  120.9480 C   0  0  0  0  0  0  0  0  0  0  0  0
   10.9180   44.0040  124.5360 O   0  0  0  0  0  0  0  0  0  0  0  0
   12.0250   45.3090  122.9050 C   0  0  0  0  0  0  0  0  0  0  0  0
    7.0140   42.6160  124.2780 C   0  0  0  0  0  0  0  0  0  0  0  0
    8.6010   44.3660  124.7420 C   0  0  0  0  0  0  0  0  0  0  0  0
   12.7010   45.4160  121.6920 C   0  0  0  0  0  0  0  0  0  0  0  0
    7.2850   43.9180  124.6870 C   0  0  0  0  0  0  0  0  0  0  0  0
   10.1270   40.3230  123.8480 H   0  0  0  0  0  0  0  0  0  0  0  0
   13.7810   36.5250  127.6080 C   0  0  0  0  0  0  0  0  0  0  0  0
   14.2330   35.5790  128.3180 O   0  0  0  0  0  0  0  0  0  0  0  0
   12.8230   37.3060  127.8650 O   0  0  0  0  0  0  0  0  0  0  0  0
  1  2  1  0  0  0  0
  2 27  1  0  0  0  0
  3  2  1  0  0  0  0
  4  2  1  0  0  0  0
  5  4  1  0  0  0  0
  6  5  1  0  0  0  0
  7  5  1  0  0  0  0
  8  6  1  0  0  0  0
  9  7  1  0  0  0  0
 10  9  1  0  0  0  0
 10  8  1  0  0  0  0
 11 10  1  6  0  0  0
 11 12  1  0  0  0  0
 12 26  1  0  0  0  0
 12 14  1  0  0  0  0
 13 11  1  0  0  0  0
 13 16  1  0  0  0  0
 14 18  1  0  0  0  0
 15 13  2  0  0  0  0
 16 20  1  0  0  0  0
 17 14  2  0  0  0  0
 17 22  1  0  0  0  0
 18 20  1  0  0  0  0
 18 23  2  0  0  0  0
 19 15  1  0  0  0  0
 19 24  2  0  0  0  0
 21 16  2  0  0  0  0
 22 25  2  0  0  0  0
 24 21  1  0  0  0  0
 25 23  1  0  0  0  0
 27 29  2  0  0  0  0
 27 28  1  0  0  0  0
M  END
>  <minimizedAffinity>
-8.57893944

>  <CNNscore>
0.303684175

>  <CNNaffinity>
4.8251996

$$$$

 OpenBabel08262621373D

 29 32  0  0  1  0  0  0  0  0999 V2000
   10.3220   41.3490  123.9860 C   0  0  0  0  0  0  0  0  0  0  0  0
   11.7760   41.7320  123.6450 C   0  0  0  0  0  0  0  0  0  0  0  0
   11.9750   43.2170  123.9640 C   0  0  0  0  0  0  0  0  0  0  0  0
   12.7370   40.8350  124.4600 C   0  0  0  0  0  0  0  0  0  0  0  0
   13.9230   40.2570  123.7640 N   0  0  0  0  0  0  0  0  0  0  0  0
   14.5450   39.1850  124.5820 C   0  0  0  0  0  0  0  0  0  0  0  0
   14.9020   41.3340  123.5130 C   0  0  0  0  0  0  0  0  0  0  0  0
   15.8540   38.6250  123.9900 C   0  0  0  0  0  0  0  0  0  0  0  0
   16.1880   40.8010  122.8620 C   0  0  0  0  0  0  0  0  0  0  0  0
   16.8040   39.7680  123.7420 N   0  0  0  0  0  0  0  0  0  0  0  0
   17.9490   39.8950  124.4340 C   0  0  2  0  0  0  0  0  0  0  0  0
   18.5030   41.0950  124.5910 N   0  0  0  0  0  0  0  0  0  0  0  0
   18.6620   38.6630  124.8680 C   0  0  0  0  0  0  0  0  0  0  0  0
   19.5760   41.3930  125.3850 C   0  0  0  0  0  0  0  0  0  0  0  0
   18.8060   37.5680  123.9910 C   0  0  0  0  0  0  0  0  0  0  0  0
   19.2300   38.5530  126.1360 C   0  0  0  0  0  0  0  0  0  0  0  0
   20.3000   42.5570  125.0790 C   0  0  0  0  0  0  0  0  0  0  0  0
   19.9340   40.6890  126.5460 C   0  0  0  0  0  0  0  0  0  0  0  0
   19.4280   36.3880  124.4070 C   0  0  0  0  0  0  0  0  0  0  0  0
   19.2150   39.6100  127.0040 O   0  0  0  0  0  0  0  0  0  0  0  0
   19.8360   37.3710  126.5680 C   0  0  0  0  0  0  0  0  0  0  0  0
   21.3670   42.9780  125.8810 C   0  0  0  0  0  0  0  0  0  0  0  0
   20.9870   41.1170  127.3610 C   0  0  0  0  0  0  0  0  0  0  0  0
   19.9310   36.2860  125.7010 C   0  0  0  0  0  0  0  0  0  0  0  0
   21.7100   42.2560  127.0200 C   0  0  0  0  0  0  0  0  0  0  0  0
   18.0610   41.8810  124.1480 H   0  0  0  0  0  0  0  0  0  0  0  0
   11.8620   41.3830  122.1370 C   0  0  0  0  0  0  0  0  0  0  0  0
   12.0840   42.3580  121.3600 O   0  0  0  0  0  0  0  0  0  0  0  0
   11.6320   40.1800  121.8340 O   0  0  0  0  0  0  0  0  0  0  0  0
  2  3  1  0  0  0  0
  2  1  1  0  0  0  0
  2  4  1  0  0  0  0
  5  4  1  0  0  0  0
  5  6  1  0  0  0  0
  7  5  1  0  0  0  0
  8  6  1  0  0  0  0
  9  7  1  0  0  0  0
  9 10  1  0  0  0  0
 10  8  1  0  0  0  0
 11 10  1  6  0  0  0
 11 12  1  0  0  0  0
 11 13  1  0  0  0  0
 12 14  1  0  0  0  0
 13 16  1  0  0  0  0
 14 18  1  0  0  0  0
 15 19  1  0  0  0  0
 15 13  2  0  0  0  0
 16 21  2  0  0  0  0
 16 20  1  0  0  0  0
 17 14  2  0  0  0  0
 17 22  1  0  0  0  0
 18 20  1  0  0  0  0
 18 23  2  0  0  0  0
 19 24  2  0  0  0  0
 22 25  2  0  0  0  0
 24 21  1  0  0  0  0
 25 23  1  0  0  0  0
 26 12  1  0  0  0  0
 27  2  1  0  0  0  0
 28 27  2  0  0  0  0
 29 27  1  0  0  0  0
M  END
>  <minimizedAffinity>
-7.13899755

>  <CNNscore>
0.269784927

>  <CNNaffinity>
5.19173479

$$$$

 OpenBabel08262621373D

 29 32  0  0  1  0  0  0  0  0999 V2000
   20.1370   37.2330  124.1830 C   0  0  0  0  0  0  0  0  0  0  0  0
   19.1660   36.7450  125.2770 C   0  0  0  0  0  0  0  0  0  0  0  0
   19.9250   36.6770  126.6060 C   0  0  0  0  0  0  0  0  0  0  0  0
   17.9630   37.7150  125.3500 C   0  0  0  0  0  0  0  0  0  0  0  0
   17.5300   38.3980  124.0960 N   0  0  0  0  0  0  0  0  0  0  0  0
   17.6860   39.8700  124.2160 C   0  0  0  0  0  0  0  0  0  0  0  0
   16.1190   38.0570  123.8280 C   0  0  0  0  0  0  0  0  0  0  0  0
   17.1400   40.6570  123.0080 C   0  0  0  0  0  0  0  0  0  0  0  0
   15.5780   38.7850  122.5880 C   0  0  0  0  0  0  0  0  0  0  0  0
   15.7050   40.2580  122.7750 N   0  0  0  0  0  0  0  0  0  0  0  0
   14.6940   41.1260  122.9550 C   0  0  2  0  0  0  0  0  0  0  0  0
   13.4750   40.6770  123.2470 N   0  0  0  0  0  0  0  0  0  0  0  0
   14.9270   42.5650  122.6580 C   0  0  0  0  0  0  0  0  0  0  0  0
   12.3950   41.4400  123.5980 C   0  0  0  0  0  0  0  0  0  0  0  0
   15.6310   42.9560  121.5010 C   0  0  0  0  0  0  0  0  0  0  0  0
   14.4420   43.5730  123.4900 C   0  0  0  0  0  0  0  0  0  0  0  0
   11.1220   40.8780  123.4120 C   0  0  0  0  0  0  0  0  0  0  0  0
   12.4700   42.6890  124.2340 C   0  0  0  0  0  0  0  0  0  0  0  0
   15.9000   44.3030  121.2410 C   0  0  0  0  0  0  0  0  0  0  0  0
   13.6670   43.2720  124.5760 O   0  0  0  0  0  0  0  0  0  0  0  0
   14.7210   44.9210  123.2490 C   0  0  0  0  0  0  0  0  0  0  0  0
    9.9650   41.5560  123.8100 C   0  0  0  0  0  0  0  0  0  0  0  0
   11.3160   43.3630  124.6510 C   0  0  0  0  0  0  0  0  0  0  0  0
   15.4550   45.2830  122.1220 C   0  0  0  0  0  0  0  0  0  0  0  0
   10.0640   42.7990  124.4280 C   0  0  0  0  0  0  0  0  0  0  0  0
   13.3350   39.6830  123.2890 H   0  0  0  0  0  0  0  0  0  0  0  0
   18.7160   35.3690  124.7240 C   0  0  0  0  0  0  0  0  0  0  0  0
   19.6490   34.5770  124.3980 O   0  0  0  0  0  0  0  0  0  0  0  0
   17.4710   35.2070  124.5900 O   0  0  0  0  0  0  0  0  0  0  0  0
  1  2  1  0  0  0  0
  2  4  1  0  0  0  0
  2  3  1  0  0  0  0
  5  6  1  0  0  0  0
  5  4  1  0  0  0  0
  7  5  1  0  0  0  0
  8  6  1  0  0  0  0
  9 10  1  0  0  0  0
  9  7  1  0  0  0  0
 10  8  1  0  0  0  0
 11 10  1  6  0  0  0
 11 12  1  0  0  0  0
 12 26  1  0  0  0  0
 12 14  1  0  0  0  0
 13 11  1  0  0  0  0
 13 16  1  0  0  0  0
 14 18  1  0  0  0  0
 15 13  2  0  0  0  0
 16 20  1  0  0  0  0
 17 14  2  0  0  0  0
 17 22  1  0  0  0  0
 18 20  1  0  0  0  0
 18 23  2  0  0  0  0
 19 15  1  0  0  0  0
 19 24  2  0  0  0  0
 21 16  2  0  0  0  0
 22 25  2  0  0  0  0
 24 21  1  0  0  0  0
 25 23  1  0  0  0  0
 27  2  1  0  0  0  0
 28 27  2  0  0  0  0
 29 27  1  0  0  0  0
M  END
>  <minimizedAffinity>
-6.77612209

>  <CNNscore>
0.246415436

>  <CNNaffinity>
5.30226755

$$$$

 OpenBabel08262621373D

 29 32  0  0  1  0  0  0  0  0999 V2000
   13.9900   37.9960  126.4650 C   0  0  0  0  0  0  0  0  0  0  0  0
   13.7660   36.5240  126.0610 C   0  0  0  0  0  0  0  0  0  0  0  0
   12.2620   36.2360  126.0880 C   0  0  0  0  0  0  0  0  0  0  0  0
   14.3720   36.2910  124.6570 C   0  0  0  0  0  0  0  0  0  0  0  0
   15.6570   36.9700  124.3220 N   0  0  0  0  0  0  0  0  0  0  0  0
   16.3550   37.4170  125.5540 C   0  0  0  0  0  0  0  0  0  0  0  0
   15.3730   38.1280  123.4510 C   0  0  0  0  0  0  0  0  0  0  0  0
   17.6290   38.2420  125.2870 C   0  0  0  0  0  0  0  0  0  0  0  0
   16.6450   38.9250  123.1230 C   0  0  0  0  0  0  0  0  0  0  0  0
   17.2810   39.3980  124.3850 N   0  0  0  0  0  0  0  0  0  0  0  0
   17.3450   40.6710  124.8130 C   0  0  2  0  0  0  0  0  0  0  0  0
   16.5890   41.6050  124.2410 N   0  0  0  0  0  0  0  0  0  0  0  0
   18.3880   41.0370  125.8100 C   0  0  0  0  0  0  0  0  0  0  0  0
   16.4420   42.8980  124.6640 C   0  0  0  0  0  0  0  0  0  0  0  0
   19.7070   40.5580  125.6800 C   0  0  0  0  0  0  0  0  0  0  0  0
   18.1100   41.8790  126.8850 C   0  0  0  0  0  0  0  0  0  0  0  0
   16.0090   43.8400  123.7180 C   0  0  0  0  0  0  0  0  0  0  0  0
   16.5810   43.3260  125.9940 C   0  0  0  0  0  0  0  0  0  0  0  0
   20.6800   40.8540  126.6390 C   0  0  0  0  0  0  0  0  0  0  0  0
   16.8790   42.4600  127.0200 O   0  0  0  0  0  0  0  0  0  0  0  0
   19.0690   42.1660  127.8600 C   0  0  0  0  0  0  0  0  0  0  0  0
   15.7620   45.1680  124.0790 C   0  0  0  0  0  0  0  0  0  0  0  0
   16.3160   44.6490  126.3640 C   0  0  0  0  0  0  0  0  0  0  0  0
   20.3560   41.6470  127.7350 C   0  0  0  0  0  0  0  0  0  0  0  0
   15.9170   45.5720  125.4020 C   0  0  0  0  0  0  0  0  0  0  0  0
   16.0090   41.3340  123.4670 H   0  0  0  0  0  0  0  0  0  0  0  0
   14.5840   35.7630  127.1350 C   0  0  0  0  0  0  0  0  0  0  0  0
   15.5760   35.1040  126.7040 O   0  0  0  0  0  0  0  0  0  0  0  0
   14.1380   35.8200  128.3140 O   0  0  0  0  0  0  0  0  0  0  0  0
  2  3  1  0  0  0  0
  2  1  1  0  0  0  0
  2 27  1  0  0  0  0
  4  2  1  0  0  0  0
  5  4  1  0  0  0  0
  5  6  1  0  0  0  0
  7  5  1  0  0  0  0
  8  6  1  0  0  0  0
  9  7  1  0  0  0  0
  9 10  1  0  0  0  0
 10  8  1  0  0  0  0
 11 10  1  6  0  0  0
 11 13  1  0  0  0  0
 12 14  1  0  0  0  0
 12 11  1  0  0  0  0
 13 16  1  0  0  0  0
 14 18  1  0  0  0  0
 15 13  2  0  0  0  0
 15 19  1  0  0  0  0
 16 20  1  0  0  0  0
 16 21  2  0  0  0  0
 17 22  1  0  0  0  0
 17 14  2  0  0  0  0
 18 23  2  0  0  0  0
 18 20  1  0  0  0  0
 19 24  2  0  0  0  0
 22 25  2  0  0  0  0
 24 21  1  0  0  0  0
 25 23  1  0  0  0  0
 26 12  1  0  0  0  0
 27 29  1  0  0  0  0
 28 27  2  0  0  0  0
M  END
>  <minimizedAffinity>
-8.22351456

>  <CNNscore>
0.238601923

>  <CNNaffinity>
5.34937096

$$$$

 OpenBabel08262621373D

 29 32  0  0  1  0  0  0  0  0999 V2000
   20.4140   31.2310  126.5180 C   0  0  0  0  0  0  0  0  0  0  0  0
   19.2620   31.2600  127.5420 C   0  0  0  0  0  0  0  0  0  0  0  0
   19.8280   30.8980  128.9200 C   0  0  0  0  0  0  0  0  0  0  0  0
   18.6190   32.6670  127.5360 C   0  0  0  0  0  0  0  0  0  0  0  0
   19.2810   33.7410  126.7400 N   0  0  0  0  0  0  0  0  0  0  0  0
   19.1420   35.0580  127.4120 C   0  0  0  0  0  0  0  0  0  0  0  0
   18.6670   33.7900  125.3990 C   0  0  0  0  0  0  0  0  0  0  0  0
   19.6890   36.2410  126.5890 C   0  0  0  0  0  0  0  0  0  0  0  0
   19.2480   34.9250  124.5420 C   0  0  0  0  0  0  0  0  0  0  0  0
   19.0380   36.2300  125.2290 N   0  0  0  0  0  0  0  0  0  0  0  0
   18.2010   37.2070  124.8420 C   0  0  2  0  0  0  0  0  0  0  0  0
   17.2720   36.9610  123.9200 N   0  0  0  0  0  0  0  0  0  0  0  0
   18.4410   38.5910  125.3320 C   0  0  0  0  0  0  0  0  0  0  0  0
   16.2670   37.8080  123.5380 C   0  0  0  0  0  0  0  0  0  0  0  0
   19.7450   39.1270  125.3640 C   0  0  0  0  0  0  0  0  0  0  0  0
   17.3960   39.4120  125.7520 C   0  0  0  0  0  0  0  0  0  0  0  0
   15.6930   37.5970  122.2740 C   0  0  0  0  0  0  0  0  0  0  0  0
   15.6940   38.7910  124.3590 C   0  0  0  0  0  0  0  0  0  0  0  0
   19.9870   40.4070  125.8720 C   0  0  0  0  0  0  0  0  0  0  0  0
   16.0970   38.9950  125.6580 O   0  0  0  0  0  0  0  0  0  0  0  0
   17.6290   40.6840  126.2800 C   0  0  0  0  0  0  0  0  0  0  0  0
   14.6130   38.3670  121.8320 C   0  0  0  0  0  0  0  0  0  0  0  0
   14.6000   39.5510  123.9280 C   0  0  0  0  0  0  0  0  0  0  0  0
   18.9290   41.1790  126.3420 C   0  0  0  0  0  0  0  0  0  0  0  0
   14.0680   39.3450  122.6590 C   0  0  0  0  0  0  0  0  0  0  0  0
   17.2480   36.0460  123.5070 H   0  0  0  0  0  0  0  0  0  0  0  0
   18.2780   30.2140  126.9590 C   0  0  0  0  0  0  0  0  0  0  0  0
   17.8030   30.4860  125.8170 O   0  0  0  0  0  0  0  0  0  0  0  0
   17.9990   29.2390  127.7090 O   0  0  0  0  0  0  0  0  0  0  0  0
  1  2  1  0  0  0  0
  2  3  1  0  0  0  0
  4  2  1  0  0  0  0
  5  6  1  0  0  0  0
  5  4  1  0  0  0  0
  7  5  1  0  0  0  0
  8  6  1  0  0  0  0
  9 10  1  0  0  0  0
  9  7  1  0  0  0  0
 10  8  1  0  0  0  0
 11 10  1  6  0  0  0
 11 13  1  0  0  0  0
 12 11  1  0  0  0  0
 13 15  2  0  0  0  0
 13 16  1  0  0  0  0
 14 12  1  0  0  0  0
 14 18  1  0  0  0  0
 15 19  1  0  0  0  0
 16 21  2  0  0  0  0
 17 14  2  0  0  0  0
 18 20  1  0  0  0  0
 19 24  2  0  0  0  0
 20 16  1  0  0  0  0
 21 24  1  0  0  0  0
 22 17  1  0  0  0  0
 22 25  2  0  0  0  0
 23 18  2  0  0  0  0
 25 23  1  0  0  0  0
 26 12  1  0  0  0  0
 27  2  1  0  0  0  0
 27 29  1  0  0  0  0
 28 27  2  0  0  0  0
M  END
>  <minimizedAffinity>
-9.49103069

>  <CNNscore>
0.203631446

>  <CNNaffinity>
5.63850737

$$$$
