
 OpenBabel08272602033D

 18 19  0  0  1  0  0  0  0  0999 V2000
   17.6330   29.4620  127.3800 C   0  0  0  0  0  0  0  0  0  0  0  0
   18.9840   30.1610  127.5290 C   0  0  2  0  0  0  0  0  0  0  0  0
   19.4550   30.2200  128.9990 C   0  0  0  0  0  0  0  0  0  0  0  0
   18.6790   30.7960  129.8150 O   0  0  0  0  0  0  0  0  0  0  0  0
   20.5670   29.6570  129.2240 O   0  0  0  0  0  0  0  0  0  0  0  0
   18.9640   31.5500  126.9130 C   0  0  0  0  0  0  0  0  0  0  0  0
   18.1500   32.5500  127.4620 C   0  0  0  0  0  0  0  0  0  0  0  0
   19.7450   31.8680  125.7950 C   0  0  0  0  0  0  0  0  0  0  0  0
   18.1290   33.8390  126.9150 C   0  0  0  0  0  0  0  0  0  0  0  0
   19.7210   33.1550  125.2560 C   0  0  0  0  0  0  0  0  0  0  0  0
   18.9190   34.1700  125.8010 C   0  0  0  0  0  0  0  0  0  0  0  0
   20.5030   33.4110  124.1950 F   0  0  0  0  0  0  0  0  0  0  0  0
   18.8870   35.5300  125.2320 C   0  0  0  0  0  0  0  0  0  0  0  0
   17.8460   35.9380  124.3810 C   0  0  0  0  0  0  0  0  0  0  0  0
   19.8930   36.4650  125.5290 C   0  0  0  0  0  0  0  0  0  0  0  0
   17.8110   37.2310  123.8490 C   0  0  0  0  0  0  0  0  0  0  0  0
   19.8610   37.7580  124.9990 C   0  0  0  0  0  0  0  0  0  0  0  0
   18.8180   38.1400  124.1590 C   0  0  0  0  0  0  0  0  0  0  0  0
  2  1  1  1  0  0  0
  2  3  1  0  0  0  0
  3  5  2  0  0  0  0
  3  4  1  0  0  0  0
  6  7  1  0  0  0  0
  6  2  1  0  0  0  0
  8  6  2  0  0  0  0
  9  7  2  0  0  0  0
 10  8  1  0  0  0  0
 10 11  2  0  0  0  0
 11  9  1  0  0  0  0
 12 10  1  0  0  0  0
 13 15  1  0  0  0  0
 13 11  1  0  0  0  0
 14 13  2  0  0  0  0
 16 18  2  0  0  0  0
 16 14  1  0  0  0  0
 17 15  2  0  0  0  0
 18 17  1  0  0  0  0
M  END
>  <minimizedAffinity>
-7.94621801

>  <CNNscore>
0.826880455

>  <CNNaffinity>
5.47009087

$$$$

 OpenBabel08272602033D

 18 19  0  0  1  0  0  0  0  0999 V2000
   20.1060   30.1810  127.9440 C   0  0  0  0  0  0  0  0  0  0  0  0
   18.6910   30.7160  127.7300 C   0  0  2  0  0  0  0  0  0  0  0  0
   17.8100   29.7380  126.9240 C   0  0  0  0  0  0  0  0  0  0  0  0
   17.5330   30.0780  125.7370 O   0  0  0  0  0  0  0  0  0  0  0  0
   17.4810   28.6830  127.5450 O   0  0  0  0  0  0  0  0  0  0  0  0
   18.7070   32.0900  127.0790 C   0  0  0  0  0  0  0  0  0  0  0  0
   17.8230   33.0840  127.5170 C   0  0  0  0  0  0  0  0  0  0  0  0
   19.5930   32.3990  126.0390 C   0  0  0  0  0  0  0  0  0  0  0  0
   17.8320   34.3600  126.9380 C   0  0  0  0  0  0  0  0  0  0  0  0
   19.5990   33.6720  125.4680 C   0  0  0  0  0  0  0  0  0  0  0  0
   18.7260   34.6820  125.9020 C   0  0  0  0  0  0  0  0  0  0  0  0
   20.4810   33.9200  124.4860 F   0  0  0  0  0  0  0  0  0  0  0  0
   18.7270   36.0270  125.2980 C   0  0  0  0  0  0  0  0  0  0  0  0
   19.6770   36.9920  125.6740 C   0  0  0  0  0  0  0  0  0  0  0  0
   17.7820   36.3850  124.3220 C   0  0  0  0  0  0  0  0  0  0  0  0
   19.6840   38.2640  125.0950 C   0  0  0  0  0  0  0  0  0  0  0  0
   17.7860   37.6570  123.7420 C   0  0  0  0  0  0  0  0  0  0  0  0
   18.7390   38.5960  124.1280 C   0  0  0  0  0  0  0  0  0  0  0  0
  2  1  1  6  0  0  0
  3  5  1  0  0  0  0
  3  2  1  0  0  0  0
  4  3  2  0  0  0  0
  6  7  1  0  0  0  0
  6  2  1  0  0  0  0
  8  6  2  0  0  0  0
  9  7  2  0  0  0  0
 10 11  2  0  0  0  0
 10  8  1  0  0  0  0
 11  9  1  0  0  0  0
 12 10  1  0  0  0  0
 13 14  1  0  0  0  0
 13 11  1  0  0  0  0
 15 13  2  0  0  0  0
 16 14  2  0  0  0  0
 17 18  2  0  0  0  0
 17 15  1  0  0  0  0
 18 16  1  0  0  0  0
M  END
>  <minimizedAffinity>
-7.6084094

>  <CNNscore>
0.81561625

>  <CNNaffinity>
5.51203871

$$$$

 OpenBabel08272602033D

 18 19  0  0  1  0  0  0  0  0999 V2000
   20.0670   30.1630  127.8900 C   0  0  0  0  0  0  0  0  0  0  0  0
   18.6620   30.7240  127.6750 C   0  0  2  0  0  0  0  0  0  0  0  0
   17.7680   29.7710  126.8530 C   0  0  0  0  0  0  0  0  0  0  0  0
   17.5240   30.1160  125.6610 O   0  0  0  0  0  0  0  0  0  0  0  0
   17.3970   28.7270  127.4690 O   0  0  0  0  0  0  0  0  0  0  0  0
   18.7050   32.1050  127.0410 C   0  0  0  0  0  0  0  0  0  0  0  0
   17.8370   33.1100  127.4880 C   0  0  0  0  0  0  0  0  0  0  0  0
   19.5990   32.4100  126.0070 C   0  0  0  0  0  0  0  0  0  0  0  0
   17.8720   34.3920  126.9240 C   0  0  0  0  0  0  0  0  0  0  0  0
   19.6290   33.6890  125.4510 C   0  0  0  0  0  0  0  0  0  0  0  0
   18.7740   34.7100  125.8940 C   0  0  0  0  0  0  0  0  0  0  0  0
   20.5180   33.9330  124.4740 F   0  0  0  0  0  0  0  0  0  0  0  0
   18.8000   36.0620  125.3060 C   0  0  0  0  0  0  0  0  0  0  0  0
   17.8780   36.4430  124.3170 C   0  0  0  0  0  0  0  0  0  0  0  0
   19.7440   37.0160  125.7230 C   0  0  0  0  0  0  0  0  0  0  0  0
   17.8970   37.7280  123.7670 C   0  0  0  0  0  0  0  0  0  0  0  0
   19.7660   38.3010  125.1740 C   0  0  0  0  0  0  0  0  0  0  0  0
   18.8400   38.6570  124.1960 C   0  0  0  0  0  0  0  0  0  0  0  0
  2  1  1  6  0  0  0
  3  5  1  0  0  0  0
  3  2  1  0  0  0  0
  4  3  2  0  0  0  0
  6  7  1  0  0  0  0
  6  2  1  0  0  0  0
  8  6  2  0  0  0  0
  9  7  2  0  0  0  0
 10 11  2  0  0  0  0
 10  8  1  0  0  0  0
 11  9  1  0  0  0  0
 12 10  1  0  0  0  0
 13 15  1  0  0  0  0
 13 11  1  0  0  0  0
 14 13  2  0  0  0  0
 16 18  2  0  0  0  0
 16 14  1  0  0  0  0
 17 15  2  0  0  0  0
 18 17  1  0  0  0  0
M  END
>  <minimizedAffinity>
-7.63268232

>  <CNNscore>
0.809764981

>  <CNNaffinity>
5.4924736

$$$$

 OpenBabel08272602033D

 18 19  0  0  1  0  0  0  0  0999 V2000
   20.1500   31.2900  128.1720 C   0  0  0  0  0  0  0  0  0  0  0  0
   18.6960   31.5370  127.7730 C   0  0  2  0  0  0  0  0  0  0  0  0
   18.0840   30.3390  127.0150 C   0  0  0  0  0  0  0  0  0  0  0  0
   17.9710   29.2600  127.6650 O   0  0  0  0  0  0  0  0  0  0  0  0
   17.7410   30.5860  125.8200 O   0  0  0  0  0  0  0  0  0  0  0  0
   18.5490   32.8180  126.9680 C   0  0  0  0  0  0  0  0  0  0  0  0
   17.4990   33.7040  127.2450 C   0  0  0  0  0  0  0  0  0  0  0  0
   19.4430   33.1470  125.9420 C   0  0  0  0  0  0  0  0  0  0  0  0
   17.3560   34.8960  126.5230 C   0  0  0  0  0  0  0  0  0  0  0  0
   19.2960   34.3360  125.2270 C   0  0  0  0  0  0  0  0  0  0  0  0
   18.2560   35.2390  125.4990 C   0  0  0  0  0  0  0  0  0  0  0  0
   20.1920   34.6110  124.2660 F   0  0  0  0  0  0  0  0  0  0  0  0
   18.0950   36.4950  124.7440 C   0  0  0  0  0  0  0  0  0  0  0  0
   17.0500   36.6580  123.8180 C   0  0  0  0  0  0  0  0  0  0  0  0
   18.9770   37.5730  124.9310 C   0  0  0  0  0  0  0  0  0  0  0  0
   16.8910   37.8520  123.1090 C   0  0  0  0  0  0  0  0  0  0  0  0
   18.8200   38.7680  124.2220 C   0  0  0  0  0  0  0  0  0  0  0  0
   17.7760   38.9070  123.3120 C   0  0  0  0  0  0  0  0  0  0  0  0
  2  1  1  6  0  0  0
  3  4  1  0  0  0  0
  3  2  1  0  0  0  0
  5  3  2  0  0  0  0
  6  7  1  0  0  0  0
  6  2  1  0  0  0  0
  8  6  2  0  0  0  0
  9  7  2  0  0  0  0
 10 11  2  0  0  0  0
 10  8  1  0  0  0  0
 11  9  1  0  0  0  0
 12 10  1  0  0  0  0
 13 15  1  0  0  0  0
 13 11  1  0  0  0  0
 14 13  2  0  0  0  0
 16 18  2  0  0  0  0
 16 14  1  0  0  0  0
 17 15  2  0  0  0  0
 18 17  1  0  0  0  0
M  END
>  <minimizedAffinity>
-7.63755941

>  <CNNscore>
0.706284404

>  <CNNaffinity>
5.27830648

$$$$

 OpenBabel08272602033D

 18 19  0  0  1  0  0  0  0  0999 V2000
   18.5330   38.4790  124.2360 C   0  0  0  0  0  0  0  0  0  0  0  0
   17.6770   37.2840  123.8190 C   0  0  2  0  0  0  0  0  0  0  0  0
   16.1650   37.5800  123.9240 C   0  0  0  0  0  0  0  0  0  0  0  0
   15.8170   38.4230  124.8010 O   0  0  0  0  0  0  0  0  0  0  0  0
   15.4410   36.9530  123.0950 O   0  0  0  0  0  0  0  0  0  0  0  0
   18.0390   36.0360  124.6100 C   0  0  0  0  0  0  0  0  0  0  0  0
   17.2310   35.6230  125.6770 C   0  0  0  0  0  0  0  0  0  0  0  0
   19.1720   35.2750  124.3000 C   0  0  0  0  0  0  0  0  0  0  0  0
   17.5410   34.4700  126.4080 C   0  0  0  0  0  0  0  0  0  0  0  0
   19.4750   34.1260  125.0310 C   0  0  0  0  0  0  0  0  0  0  0  0
   18.6700   33.6920  126.0970 C   0  0  0  0  0  0  0  0  0  0  0  0
   20.5640   33.4220  124.6810 F   0  0  0  0  0  0  0  0  0  0  0  0
   18.9890   32.4810  126.8740 C   0  0  0  0  0  0  0  0  0  0  0  0
   18.1650   32.0580  127.9310 C   0  0  0  0  0  0  0  0  0  0  0  0
   20.1220   31.7050  126.5770 C   0  0  0  0  0  0  0  0  0  0  0  0
   18.4620   30.9030  128.6620 C   0  0  0  0  0  0  0  0  0  0  0  0
   20.4220   30.5510  127.3070 C   0  0  0  0  0  0  0  0  0  0  0  0
   19.5890   30.1500  128.3490 C   0  0  0  0  0  0  0  0  0  0  0  0
  2  3  1  0  0  0  0
  2  1  1  1  0  0  0
  2  6  1  0  0  0  0
  3  4  1  0  0  0  0
  5  3  2  0  0  0  0
  6  7  1  0  0  0  0
  7  9  2  0  0  0  0
  8  6  2  0  0  0  0
  8 10  1  0  0  0  0
 10 11  2  0  0  0  0
 11  9  1  0  0  0  0
 11 13  1  0  0  0  0
 12 10  1  0  0  0  0
 13 14  1  0  0  0  0
 14 16  2  0  0  0  0
 15 13  2  0  0  0  0
 15 17  1  0  0  0  0
 17 18  2  0  0  0  0
 18 16  1  0  0  0  0
M  END
>  <minimizedAffinity>
-7.27016973

>  <CNNscore>
0.690401852

>  <CNNaffinity>
5.05895948

$$$$

 OpenBabel08272602033D

 18 19  0  0  1  0  0  0  0  0999 V2000
   17.6320   29.4690  127.4000 C   0  0  0  0  0  0  0  0  0  0  0  0
   18.9770   30.1820  127.5390 C   0  0  2  0  0  0  0  0  0  0  0  0
   19.4790   30.2070  128.9990 C   0  0  0  0  0  0  0  0  0  0  0  0
   18.7310   30.7850  129.8410 O   0  0  0  0  0  0  0  0  0  0  0  0
   20.5850   29.6200  129.1910 O   0  0  0  0  0  0  0  0  0  0  0  0
   18.9240   31.5880  126.9620 C   0  0  0  0  0  0  0  0  0  0  0  0
   19.7750   31.9460  125.9080 C   0  0  0  0  0  0  0  0  0  0  0  0
   18.0380   32.5520  127.4580 C   0  0  0  0  0  0  0  0  0  0  0  0
   19.7310   33.2320  125.3550 C   0  0  0  0  0  0  0  0  0  0  0  0
   17.9980   33.8310  126.9010 C   0  0  0  0  0  0  0  0  0  0  0  0
   18.8370   34.2020  125.8390 C   0  0  0  0  0  0  0  0  0  0  0  0
   17.1170   34.7120  127.4030 F   0  0  0  0  0  0  0  0  0  0  0  0
   18.8000   35.5530  125.2500 C   0  0  0  0  0  0  0  0  0  0  0  0
   17.7500   35.9500  124.4050 C   0  0  0  0  0  0  0  0  0  0  0  0
   19.8100   36.4910  125.5230 C   0  0  0  0  0  0  0  0  0  0  0  0
   17.7110   37.2350  123.8540 C   0  0  0  0  0  0  0  0  0  0  0  0
   19.7740   37.7760  124.9740 C   0  0  0  0  0  0  0  0  0  0  0  0
   18.7220   38.1480  124.1400 C   0  0  0  0  0  0  0  0  0  0  0  0
  2  1  1  1  0  0  0
  2  3  1  0  0  0  0
  3  5  2  0  0  0  0
  3  4  1  0  0  0  0
  6  8  1  0  0  0  0
  6  2  1  0  0  0  0
  7  6  2  0  0  0  0
  9 11  2  0  0  0  0
  9  7  1  0  0  0  0
 10 12  1  0  0  0  0
 10  8  2  0  0  0  0
 11 10  1  0  0  0  0
 13 15  1  0  0  0  0
 13 11  1  0  0  0  0
 14 13  2  0  0  0  0
 16 18  2  0  0  0  0
 16 14  1  0  0  0  0
 17 15  2  0  0  0  0
 18 17  1  0  0  0  0
M  END
>  <minimizedAffinity>
-7.93731499

>  <CNNscore>
0.6804263

>  <CNNaffinity>
5.19378233

$$$$

 OpenBabel08272602033D

 18 19  0  0  1  0  0  0  0  0999 V2000
   15.4500   35.5100  125.8590 C   0  0  0  0  0  0  0  0  0  0  0  0
   14.9830   36.7980  126.5360 C   0  0  2  0  0  0  0  0  0  0  0  0
   13.8950   36.5390  127.6010 C   0  0  0  0  0  0  0  0  0  0  0  0
   12.9170   37.3420  127.6120 O   0  0  0  0  0  0  0  0  0  0  0  0
   14.1000   35.5270  128.3350 O   0  0  0  0  0  0  0  0  0  0  0  0
   14.5090   37.8220  125.5180 C   0  0  0  0  0  0  0  0  0  0  0  0
   13.5790   37.4570  124.5360 C   0  0  0  0  0  0  0  0  0  0  0  0
   14.9800   39.1410  125.5300 C   0  0  0  0  0  0  0  0  0  0  0  0
   13.1210   38.3910  123.5970 C   0  0  0  0  0  0  0  0  0  0  0  0
   14.5180   40.0670  124.5940 C   0  0  0  0  0  0  0  0  0  0  0  0
   13.5790   39.7200  123.6100 C   0  0  0  0  0  0  0  0  0  0  0  0
   14.9880   41.3230  124.6610 F   0  0  0  0  0  0  0  0  0  0  0  0
   13.0920   40.6940  122.6160 C   0  0  0  0  0  0  0  0  0  0  0  0
   11.8070   41.2550  122.7170 C   0  0  0  0  0  0  0  0  0  0  0  0
   13.9000   41.1000  121.5410 C   0  0  0  0  0  0  0  0  0  0  0  0
   11.3480   42.1860  121.7810 C   0  0  0  0  0  0  0  0  0  0  0  0
   13.4430   42.0300  120.6020 C   0  0  0  0  0  0  0  0  0  0  0  0
   12.1670   42.5740  120.7240 C   0  0  0  0  0  0  0  0  0  0  0  0
  2  1  1  6  0  0  0
  2  3  1  0  0  0  0
  3  4  2  0  0  0  0
  3  5  1  0  0  0  0
  6  8  1  0  0  0  0
  6  2  1  0  0  0  0
  7  6  2  0  0  0  0
  9 11  2  0  0  0  0
  9  7  1  0  0  0  0
 10 12  1  0  0  0  0
 10  8  2  0  0  0  0
 11 10  1  0  0  0  0
 13 14  1  0  0  0  0
 13 11  1  0  0  0  0
 15 13  2  0  0  0  0
 16 14  2  0  0  0  0
 17 18  2  0  0  0  0
 17 15  1  0  0  0  0
 18 16  1  0  0  0  0
M  END
>  <minimizedAffinity>
-6.3000493

>  <CNNscore>
0.66690129

>  <CNNaffinity>
4.29039621

$$$$

 OpenBabel08272602033D

 18 19  0  0  1  0  0  0  0  0999 V2000
   18.5200   38.4560  124.2520 C   0  0  0  0  0  0  0  0  0  0  0  0
   17.6060   37.2920  123.8710 C   0  0  2  0  0  0  0  0  0  0  0  0
   16.1110   37.6470  124.0210 C   0  0  0  0  0  0  0  0  0  0  0  0
   15.8320   38.5800  124.8300 O   0  0  0  0  0  0  0  0  0  0  0  0
   15.3280   36.9710  123.2900 O   0  0  0  0  0  0  0  0  0  0  0  0
   17.9440   36.0370  124.6580 C   0  0  0  0  0  0  0  0  0  0  0  0
   19.0310   35.2400  124.2750 C   0  0  0  0  0  0  0  0  0  0  0  0
   17.1930   35.6450  125.7730 C   0  0  0  0  0  0  0  0  0  0  0  0
   19.3660   34.0870  124.9960 C   0  0  0  0  0  0  0  0  0  0  0  0
   17.5330   34.4970  126.4880 C   0  0  0  0  0  0  0  0  0  0  0  0
   18.6240   33.6930  126.1240 C   0  0  0  0  0  0  0  0  0  0  0  0
   16.7900   34.1760  127.5610 F   0  0  0  0  0  0  0  0  0  0  0  0
   18.9840   32.4760  126.8750 C   0  0  0  0  0  0  0  0  0  0  0  0
   20.1400   31.7410  126.5580 C   0  0  0  0  0  0  0  0  0  0  0  0
   18.1880   32.0170  127.9380 C   0  0  0  0  0  0  0  0  0  0  0  0
   20.4860   30.5930  127.2760 C   0  0  0  0  0  0  0  0  0  0  0  0
   18.5320   30.8690  128.6570 C   0  0  0  0  0  0  0  0  0  0  0  0
   19.6830   30.1580  128.3260 C   0  0  0  0  0  0  0  0  0  0  0  0
  2  3  1  0  0  0  0
  2  1  1  1  0  0  0
  2  6  1  0  0  0  0
  3  4  1  0  0  0  0
  5  3  2  0  0  0  0
  6  8  1  0  0  0  0
  7  6  2  0  0  0  0
  7  9  1  0  0  0  0
  8 10  2  0  0  0  0
  9 11  2  0  0  0  0
 10 12  1  0  0  0  0
 11 10  1  0  0  0  0
 11 13  1  0  0  0  0
 13 15  1  0  0  0  0
 14 13  2  0  0  0  0
 14 16  1  0  0  0  0
 15 17  2  0  0  0  0
 16 18  2  0  0  0  0
 18 17  1  0  0  0  0
M  END
>  <minimizedAffinity>
-7.39973307

>  <CNNscore>
0.443946123

>  <CNNaffinity>
4.71879244

$$$$

 OpenBabel08272602033D

 18 19  0  0  1  0  0  0  0  0999 V2000
   20.2680   31.3650  127.9820 C   0  0  0  0  0  0  0  0  0  0  0  0
   18.7820   31.5940  127.7090 C   0  0  2  0  0  0  0  0  0  0  0  0
   18.1240   30.3940  126.9940 C   0  0  0  0  0  0  0  0  0  0  0  0
   17.7600   30.5820  125.7970 O   0  0  0  0  0  0  0  0  0  0  0  0
   18.0460   29.3380  127.6910 O   0  0  0  0  0  0  0  0  0  0  0  0
   18.5500   32.8790  126.9290 C   0  0  0  0  0  0  0  0  0  0  0  0
   19.4480   33.2610  125.9240 C   0  0  0  0  0  0  0  0  0  0  0  0
   17.4500   33.7060  127.1880 C   0  0  0  0  0  0  0  0  0  0  0  0
   19.2440   34.4340  125.1860 C   0  0  0  0  0  0  0  0  0  0  0  0
   17.2520   34.8730  126.4490 C   0  0  0  0  0  0  0  0  0  0  0  0
   18.1360   35.2640  125.4310 C   0  0  0  0  0  0  0  0  0  0  0  0
   16.1710   35.6210  126.7260 F   0  0  0  0  0  0  0  0  0  0  0  0
   17.9310   36.4980  124.6510 C   0  0  0  0  0  0  0  0  0  0  0  0
   16.8850   36.6030  123.7180 C   0  0  0  0  0  0  0  0  0  0  0  0
   18.7710   37.6120  124.8200 C   0  0  0  0  0  0  0  0  0  0  0  0
   16.6860   37.7760  122.9840 C   0  0  0  0  0  0  0  0  0  0  0  0
   18.5740   38.7860  124.0870 C   0  0  0  0  0  0  0  0  0  0  0  0
   17.5290   38.8680  123.1700 C   0  0  0  0  0  0  0  0  0  0  0  0
  2  1  1  6  0  0  0
  3  5  1  0  0  0  0
  3  2  1  0  0  0  0
  4  3  2  0  0  0  0
  6  8  1  0  0  0  0
  6  2  1  0  0  0  0
  7  6  2  0  0  0  0
  9 11  2  0  0  0  0
  9  7  1  0  0  0  0
 10 12  1  0  0  0  0
 10  8  2  0  0  0  0
 11 10  1  0  0  0  0
 13 15  1  0  0  0  0
 13 11  1  0  0  0  0
 14 13  2  0  0  0  0
 16 18  2  0  0  0  0
 16 14  1  0  0  0  0
 17 15  2  0  0  0  0
 18 17  1  0  0  0  0
M  END
>  <minimizedAffinity>
-7.53895521

>  <CNNscore>
0.40199849

>  <CNNaffinity>
4.89329529

$$$$
