
 OpenBabel08272602393D

 27 30  0  0  1  0  0  0  0  0999 V2000
   13.1260   39.7420  123.0640 C   0  0  1  0  0  0  0  0  0  0  0  0
   12.3040   38.4340  122.9520 C   0  0  0  0  0  0  0  0  0  0  0  0
   12.6760   37.4370  124.0660 C   0  0  0  0  0  0  0  0  0  0  0  0
   14.1560   37.3990  124.2550 C   0  0  0  0  0  0  0  0  0  0  0  0
   15.0610   38.3230  123.7610 C   0  0  0  0  0  0  0  0  0  0  0  0
   16.3510   37.9060  124.1570 C   0  0  0  0  0  0  0  0  0  0  0  0
   17.5490   38.4900  123.9060 N   0  0  0  0  0  0  0  0  0  0  0  0
   18.6060   37.8180  124.4040 C   0  0  0  0  0  0  0  0  0  0  0  0
   19.8180   38.3520  124.1750 F   0  0  0  0  0  0  0  0  0  0  0  0
   18.5570   36.6370  125.1270 C   0  0  0  0  0  0  0  0  0  0  0  0
   17.3240   36.0550  125.3940 C   0  0  0  0  0  0  0  0  0  0  0  0
   16.2060   36.7250  124.8900 C   0  0  0  0  0  0  0  0  0  0  0  0
   14.8520   36.4450  124.9610 N   0  0  0  0  0  0  0  0  0  0  0  0
   14.6550   39.5000  122.9370 C   0  0  0  0  0  0  0  0  0  0  0  0
   12.6250   40.8260  122.1860 N   0  0  0  0  0  0  0  0  0  0  0  0
   13.6250   41.5810  121.4450 C   0  0  0  0  0  0  0  0  0  0  0  0
   11.4990   41.5510  122.5510 C   0  0  0  0  0  0  0  0  0  0  0  0
   10.7200   42.0870  121.5990 N   0  0  0  0  0  0  0  0  0  0  0  0
   11.2280   41.7200  123.8610 N   0  0  0  0  0  0  0  0  0  0  0  0
    9.6340   42.7980  121.9730 C   0  0  0  0  0  0  0  0  0  0  0  0
   10.1330   42.4410  124.1960 C   0  0  0  0  0  0  0  0  0  0  0  0
    9.2890   43.0100  123.2800 C   0  0  0  0  0  0  0  0  0  0  0  0
    7.9140   43.9160  123.7370 Cl  0  0  0  0  0  0  0  0  0  0  0  0
   14.2650   35.3910  125.7740 C   0  0  0  0  0  0  0  0  0  0  0  0
   13.9700   35.8590  127.1870 C   0  0  0  0  0  0  0  0  0  0  0  0
   14.9160   35.7130  128.0170 O   0  0  0  0  0  0  0  0  0  0  0  0
   12.8410   36.4040  127.3580 O   0  0  0  0  0  0  0  0  0  0  0  0
  1 15  1  6  0  0  0
  2  1  1  0  0  0  0
  2  3  1  0  0  0  0
  3  4  1  0  0  0  0
  4 13  1  0  0  0  0
  5  6  1  0  0  0  0
  5  4  2  0  0  0  0
  6 12  1  0  0  0  0
  7  6  2  0  0  0  0
  7  8  1  0  0  0  0
  8 10  2  0  0  0  0
  9  8  1  0  0  0  0
 10 11  1  0  0  0  0
 12 13  1  0  0  0  0
 12 11  2  0  0  0  0
 13 24  1  0  0  0  0
 14  1  1  0  0  0  0
 14  5  1  0  0  0  0
 15 17  1  0  0  0  0
 16 15  1  0  0  0  0
 17 19  1  0  0  0  0
 18 20  1  0  0  0  0
 18 17  2  0  0  0  0
 19 21  2  0  0  0  0
 20 22  2  0  0  0  0
 22 23  1  0  0  0  0
 22 21  1  0  0  0  0
 24 25  1  0  0  0  0
 25 27  2  0  0  0  0
 25 26  1  0  0  0  0
M  END
>  <minimizedAffinity>
-7.97292805

>  <CNNscore>
0.606778383

>  <CNNaffinity>
5.86193419

$$$$

 OpenBabel08272602393D

 27 30  0  0  1  0  0  0  0  0999 V2000
   15.1220   40.2130  123.4400 C   0  0  1  0  0  0  0  0  0  0  0  0
   13.8760   39.3580  123.1000 C   0  0  0  0  0  0  0  0  0  0  0  0
   13.6080   38.2970  124.1840 C   0  0  0  0  0  0  0  0  0  0  0  0
   14.8860   37.6540  124.6080 C   0  0  0  0  0  0  0  0  0  0  0  0
   16.1600   38.1250  124.3370 C   0  0  0  0  0  0  0  0  0  0  0  0
   17.0770   37.2140  124.9050 C   0  0  0  0  0  0  0  0  0  0  0  0
   18.4340   37.2550  124.8960 N   0  0  0  0  0  0  0  0  0  0  0  0
   19.0210   36.2080  125.5080 C   0  0  0  0  0  0  0  0  0  0  0  0
   20.3650   36.1960  125.5190 F   0  0  0  0  0  0  0  0  0  0  0  0
   18.3710   35.1520  126.1260 C   0  0  0  0  0  0  0  0  0  0  0  0
   16.9820   35.1270  126.1460 C   0  0  0  0  0  0  0  0  0  0  0  0
   16.3400   36.1980  125.5170 C   0  0  0  0  0  0  0  0  0  0  0  0
   14.9990   36.4980  125.3460 N   0  0  0  0  0  0  0  0  0  0  0  0
   16.4190   39.3650  123.5450 C   0  0  0  0  0  0  0  0  0  0  0  0
   15.2680   41.4070  122.5740 N   0  0  0  0  0  0  0  0  0  0  0  0
   16.4490   42.2300  122.7890 C   0  0  0  0  0  0  0  0  0  0  0  0
   14.1420   42.1020  122.1530 C   0  0  0  0  0  0  0  0  0  0  0  0
   13.4510   42.8400  123.0350 N   0  0  0  0  0  0  0  0  0  0  0  0
   13.7560   41.9980  120.8650 N   0  0  0  0  0  0  0  0  0  0  0  0
   12.3530   43.5010  122.6090 C   0  0  0  0  0  0  0  0  0  0  0  0
   12.6490   42.6730  120.4770 C   0  0  0  0  0  0  0  0  0  0  0  0
   11.8990   43.4510  121.3190 C   0  0  0  0  0  0  0  0  0  0  0  0
   10.5040   44.2900  120.7970 Cl  0  0  0  0  0  0  0  0  0  0  0  0
   13.9020   35.7790  125.9740 C   0  0  0  0  0  0  0  0  0  0  0  0
   13.6250   36.2770  127.3810 C   0  0  0  0  0  0  0  0  0  0  0  0
   14.2470   35.6710  128.3030 O   0  0  0  0  0  0  0  0  0  0  0  0
   12.8600   37.2820  127.4640 O   0  0  0  0  0  0  0  0  0  0  0  0
  1 15  1  6  0  0  0
  1 14  1  0  0  0  0
  2  1  1  0  0  0  0
  2  3  1  0  0  0  0
  3  4  1  0  0  0  0
  4 13  1  0  0  0  0
  5  4  2  0  0  0  0
  5  6  1  0  0  0  0
  6 12  1  0  0  0  0
  7  6  2  0  0  0  0
  7  8  1  0  0  0  0
  8  9  1  0  0  0  0
  8 10  2  0  0  0  0
 10 11  1  0  0  0  0
 12 11  2  0  0  0  0
 13 12  1  0  0  0  0
 13 24  1  0  0  0  0
 14  5  1  0  0  0  0
 15 16  1  0  0  0  0
 17 15  1  0  0  0  0
 17 18  1  0  0  0  0
 19 17  2  0  0  0  0
 20 18  2  0  0  0  0
 21 19  1  0  0  0  0
 21 22  2  0  0  0  0
 22 20  1  0  0  0  0
 23 22  1  0  0  0  0
 24 25  1  0  0  0  0
 25 27  2  0  0  0  0
 25 26  1  0  0  0  0
M  END
>  <minimizedAffinity>
-7.64717054

>  <CNNscore>
0.468821228

>  <CNNaffinity>
5.74646807

$$$$

 OpenBabel08272602393D

 27 30  0  0  1  0  0  0  0  0999 V2000
   17.2630   36.3260  125.4680 C   0  0  1  0  0  0  0  0  0  0  0  0
   16.1020   35.5200  126.1020 C   0  0  0  0  0  0  0  0  0  0  0  0
   16.6180   34.5070  127.1400 C   0  0  0  0  0  0  0  0  0  0  0  0
   17.8390   33.8180  126.6280 C   0  0  0  0  0  0  0  0  0  0  0  0
   18.6040   34.2190  125.5460 C   0  0  0  0  0  0  0  0  0  0  0  0
   19.6530   33.2840  125.3990 C   0  0  0  0  0  0  0  0  0  0  0  0
   20.6490   33.2600  124.4780 N   0  0  0  0  0  0  0  0  0  0  0  0
   21.4800   32.2060  124.5920 C   0  0  0  0  0  0  0  0  0  0  0  0
   22.4810   32.1310  123.6970 F   0  0  0  0  0  0  0  0  0  0  0  0
   21.4010   31.2010  125.5430 C   0  0  0  0  0  0  0  0  0  0  0  0
   20.3880   31.2430  126.4930 C   0  0  0  0  0  0  0  0  0  0  0  0
   19.5050   32.3230  126.4020 C   0  0  0  0  0  0  0  0  0  0  0  0
   18.4030   32.6810  127.1600 N   0  0  0  0  0  0  0  0  0  0  0  0
   18.2800   35.4200  124.7200 C   0  0  0  0  0  0  0  0  0  0  0  0
   16.8040   37.4840  124.6660 N   0  0  0  0  0  0  0  0  0  0  0  0
   16.4260   37.2140  123.2870 C   0  0  0  0  0  0  0  0  0  0  0  0
   17.3500   38.7410  124.8860 C   0  0  0  0  0  0  0  0  0  0  0  0
   18.4120   39.1370  124.1690 N   0  0  0  0  0  0  0  0  0  0  0  0
   16.8100   39.5290  125.8380 N   0  0  0  0  0  0  0  0  0  0  0  0
   18.9350   40.3610  124.4030 C   0  0  0  0  0  0  0  0  0  0  0  0
   17.3630   40.7460  126.0460 C   0  0  0  0  0  0  0  0  0  0  0  0
   18.4420   41.2200  125.3470 C   0  0  0  0  0  0  0  0  0  0  0  0
   19.1180   42.7630  125.6360 Cl  0  0  0  0  0  0  0  0  0  0  0  0
   18.0050   32.0330  128.4010 C   0  0  0  0  0  0  0  0  0  0  0  0
   18.7590   30.7360  128.6330 C   0  0  0  0  0  0  0  0  0  0  0  0
   19.7440   30.8150  129.4250 O   0  0  0  0  0  0  0  0  0  0  0  0
   18.2750   29.7130  128.0660 O   0  0  0  0  0  0  0  0  0  0  0  0
  1 15  1  6  0  0  0
  1  2  1  0  0  0  0
  2  3  1  0  0  0  0
  4  3  1  0  0  0  0
  4 13  1  0  0  0  0
  5  4  2  0  0  0  0
  6  5  1  0  0  0  0
  6 12  1  0  0  0  0
  7  8  1  0  0  0  0
  7  6  2  0  0  0  0
  8 10  2  0  0  0  0
  9  8  1  0  0  0  0
 10 11  1  0  0  0  0
 12 11  2  0  0  0  0
 12 13  1  0  0  0  0
 13 24  1  0  0  0  0
 14  1  1  0  0  0  0
 14  5  1  0  0  0  0
 15 17  1  0  0  0  0
 16 15  1  0  0  0  0
 17 19  1  0  0  0  0
 18 20  1  0  0  0  0
 18 17  2  0  0  0  0
 19 21  2  0  0  0  0
 20 22  2  0  0  0  0
 22 23  1  0  0  0  0
 22 21  1  0  0  0  0
 24 25  1  0  0  0  0
 25 26  1  0  0  0  0
 27 25  2  0  0  0  0
M  END
>  <minimizedAffinity>
-8.15128613

>  <CNNscore>
0.461051404

>  <CNNaffinity>
6.46883917

$$$$

 OpenBabel08272602393D

 27 30  0  0  1  0  0  0  0  0999 V2000
   17.9760   35.6040  125.1120 C   0  0  1  0  0  0  0  0  0  0  0  0
   16.8750   35.2530  126.1440 C   0  0  0  0  0  0  0  0  0  0  0  0
   15.4790   35.6620  125.6400 C   0  0  0  0  0  0  0  0  0  0  0  0
   15.5320   37.0120  125.0050 C   0  0  0  0  0  0  0  0  0  0  0  0
   16.6810   37.6820  124.6190 C   0  0  0  0  0  0  0  0  0  0  0  0
   16.2830   38.9250  124.0770 C   0  0  0  0  0  0  0  0  0  0  0  0
   17.0560   39.9190  123.5710 N   0  0  0  0  0  0  0  0  0  0  0  0
   16.3650   40.9990  123.1580 C   0  0  0  0  0  0  0  0  0  0  0  0
   17.0850   42.0170  122.6550 F   0  0  0  0  0  0  0  0  0  0  0  0
   14.9880   41.1540  123.2000 C   0  0  0  0  0  0  0  0  0  0  0  0
   14.2040   40.1240  123.7030 C   0  0  0  0  0  0  0  0  0  0  0  0
   14.8900   38.9880  124.1450 C   0  0  0  0  0  0  0  0  0  0  0  0
   14.4460   37.7970  124.6930 N   0  0  0  0  0  0  0  0  0  0  0  0
   18.0530   37.1260  124.8140 C   0  0  0  0  0  0  0  0  0  0  0  0
   19.2910   34.9980  125.4290 N   0  0  0  0  0  0  0  0  0  0  0  0
   20.3890   35.3120  124.5260 C   0  0  0  0  0  0  0  0  0  0  0  0
   19.3550   33.7390  126.0090 C   0  0  0  0  0  0  0  0  0  0  0  0
   19.4790   33.6290  127.3400 N   0  0  0  0  0  0  0  0  0  0  0  0
   19.3150   32.6520  125.2130 N   0  0  0  0  0  0  0  0  0  0  0  0
   19.5500   32.3950  127.8860 C   0  0  0  0  0  0  0  0  0  0  0  0
   19.3920   31.4330  125.7960 C   0  0  0  0  0  0  0  0  0  0  0  0
   19.5110   31.2430  127.1470 C   0  0  0  0  0  0  0  0  0  0  0  0
   19.6060   29.6890  127.8520 Cl  0  0  0  0  0  0  0  0  0  0  0  0
   13.0510   37.3950  124.7830 C   0  0  0  0  0  0  0  0  0  0  0  0
   12.5980   37.2280  126.2220 C   0  0  0  0  0  0  0  0  0  0  0  0
   12.6070   38.2850  126.9200 O   0  0  0  0  0  0  0  0  0  0  0  0
   12.1980   36.0700  126.5380 O   0  0  0  0  0  0  0  0  0  0  0  0
  1 15  1  1  0  0  0
  1  2  1  0  0  0  0
  3  2  1  0  0  0  0
  4  3  1  0  0  0  0
  5 14  1  0  0  0  0
  5  4  2  0  0  0  0
  6 12  1  0  0  0  0
  6  5  1  0  0  0  0
  7  6  2  0  0  0  0
  8 10  2  0  0  0  0
  8  7  1  0  0  0  0
  9  8  1  0  0  0  0
 10 11  1  0  0  0  0
 11 12  2  0  0  0  0
 12 13  1  0  0  0  0
 13 24  1  0  0  0  0
 13  4  1  0  0  0  0
 14  1  1  0  0  0  0
 15 17  1  0  0  0  0
 16 15  1  0  0  0  0
 17 18  1  0  0  0  0
 18 20  2  0  0  0  0
 19 21  1  0  0  0  0
 19 17  2  0  0  0  0
 21 22  2  0  0  0  0
 22 23  1  0  0  0  0
 22 20  1  0  0  0  0
 24 25  1  0  0  0  0
 25 27  2  0  0  0  0
 25 26  1  0  0  0  0
M  END
>  <minimizedAffinity>
-8.45080853

>  <CNNscore>
0.453522146

>  <CNNaffinity>
6.32685709

$$$$

 OpenBabel08272602393D

 27 30  0  0  1  0  0  0  0  0999 V2000
   13.3410   41.7320  122.9580 C   0  0  1  0  0  0  0  0  0  0  0  0
   12.2270   40.7430  122.5330 C   0  0  0  0  0  0  0  0  0  0  0  0
   12.2390   39.4730  123.4040 C   0  0  0  0  0  0  0  0  0  0  0  0
   13.6400   39.0040  123.6180 C   0  0  0  0  0  0  0  0  0  0  0  0
   14.7880   39.7370  123.3690 C   0  0  0  0  0  0  0  0  0  0  0  0
   15.8920   38.9190  123.6940 C   0  0  0  0  0  0  0  0  0  0  0  0
   17.2160   39.2030  123.6130 N   0  0  0  0  0  0  0  0  0  0  0  0
   18.0220   38.1850  123.9740 C   0  0  0  0  0  0  0  0  0  0  0  0
   19.3450   38.4130  123.9020 F   0  0  0  0  0  0  0  0  0  0  0  0
   17.6150   36.9350  124.4110 C   0  0  0  0  0  0  0  0  0  0  0  0
   16.2570   36.6590  124.5080 C   0  0  0  0  0  0  0  0  0  0  0  0
   15.3910   37.6920  124.1390 C   0  0  0  0  0  0  0  0  0  0  0  0
   14.0100   37.7730  124.1090 N   0  0  0  0  0  0  0  0  0  0  0  0
   14.7640   41.1260  122.8190 C   0  0  0  0  0  0  0  0  0  0  0  0
   13.2070   43.0700  122.3340 N   0  0  0  0  0  0  0  0  0  0  0  0
   12.5610   44.1010  123.1330 C   0  0  0  0  0  0  0  0  0  0  0  0
   13.0060   43.1810  120.9650 C   0  0  0  0  0  0  0  0  0  0  0  0
   13.9940   42.8500  120.1210 N   0  0  0  0  0  0  0  0  0  0  0  0
   11.8220   43.6460  120.5160 N   0  0  0  0  0  0  0  0  0  0  0  0
   13.7830   42.9750  118.7930 C   0  0  0  0  0  0  0  0  0  0  0  0
   11.6500   43.7600  119.1790 C   0  0  0  0  0  0  0  0  0  0  0  0
   12.6100   43.4340  118.2580 C   0  0  0  0  0  0  0  0  0  0  0  0
   12.3600   43.5900  116.5740 Cl  0  0  0  0  0  0  0  0  0  0  0  0
   13.1090   36.7660  124.6490 C   0  0  0  0  0  0  0  0  0  0  0  0
   12.9790   36.8680  126.1580 C   0  0  0  0  0  0  0  0  0  0  0  0
   12.8970   38.0460  126.6170 O   0  0  0  0  0  0  0  0  0  0  0  0
   12.8980   35.7670  126.7750 O   0  0  0  0  0  0  0  0  0  0  0  0
  1 15  1  6  0  0  0
  2  1  1  0  0  0  0
  2  3  1  0  0  0  0
  3  4  1  0  0  0  0
  4 13  1  0  0  0  0
  5  4  2  0  0  0  0
  5  6  1  0  0  0  0
  6 12  1  0  0  0  0
  7  6  2  0  0  0  0
  7  8  1  0  0  0  0
  8 10  2  0  0  0  0
  9  8  1  0  0  0  0
 10 11  1  0  0  0  0
 12 11  2  0  0  0  0
 13 12  1  0  0  0  0
 13 24  1  0  0  0  0
 14  1  1  0  0  0  0
 14  5  1  0  0  0  0
 15 16  1  0  0  0  0
 17 15  1  0  0  0  0
 18 17  2  0  0  0  0
 19 17  1  0  0  0  0
 20 18  1  0  0  0  0
 21 19  2  0  0  0  0
 22 20  2  0  0  0  0
 22 21  1  0  0  0  0
 23 22  1  0  0  0  0
 24 25  1  0  0  0  0
 25 26  2  0  0  0  0
 25 27  1  0  0  0  0
M  END
>  <minimizedAffinity>
-7.28018713

>  <CNNscore>
0.330668926

>  <CNNaffinity>
5.8576684

$$$$

 OpenBabel08272602393D

 27 30  0  0  1  0  0  0  0  0999 V2000
   15.1580   40.9030  124.4200 C   0  0  1  0  0  0  0  0  0  0  0  0
   13.8580   40.1730  124.0010 C   0  0  0  0  0  0  0  0  0  0  0  0
   13.6130   38.9190  124.8590 C   0  0  0  0  0  0  0  0  0  0  0  0
   14.8870   38.1650  125.0520 C   0  0  0  0  0  0  0  0  0  0  0  0
   16.1600   38.6450  124.7950 C   0  0  0  0  0  0  0  0  0  0  0  0
   17.0710   37.6100  125.0990 C   0  0  0  0  0  0  0  0  0  0  0  0
   18.4250   37.6120  125.0040 N   0  0  0  0  0  0  0  0  0  0  0  0
   19.0040   36.4440  125.3450 C   0  0  0  0  0  0  0  0  0  0  0  0
   20.3450   36.3920  125.2590 F   0  0  0  0  0  0  0  0  0  0  0  0
   18.3490   35.3020  125.7770 C   0  0  0  0  0  0  0  0  0  0  0  0
   16.9640   35.3150  125.8880 C   0  0  0  0  0  0  0  0  0  0  0  0
   16.3300   36.5100  125.5390 C   0  0  0  0  0  0  0  0  0  0  0  0
   14.9960   36.8780  125.5270 N   0  0  0  0  0  0  0  0  0  0  0  0
   16.4210   40.0140  124.2590 C   0  0  0  0  0  0  0  0  0  0  0  0
   15.3000   42.2460  123.8100 N   0  0  0  0  0  0  0  0  0  0  0  0
   15.1480   43.3870  124.7010 C   0  0  0  0  0  0  0  0  0  0  0  0
   14.8810   42.4650  122.5050 C   0  0  0  0  0  0  0  0  0  0  0  0
   15.3890   43.4930  121.8100 N   0  0  0  0  0  0  0  0  0  0  0  0
   13.9500   41.6470  121.9740 N   0  0  0  0  0  0  0  0  0  0  0  0
   14.9620   43.6960  120.5450 C   0  0  0  0  0  0  0  0  0  0  0  0
   13.5440   41.8840  120.7050 C   0  0  0  0  0  0  0  0  0  0  0  0
   14.0240   42.9090  119.9330 C   0  0  0  0  0  0  0  0  0  0  0  0
   13.4910   43.1820  118.3330 Cl  0  0  0  0  0  0  0  0  0  0  0  0
   13.9100   36.0760  126.0690 C   0  0  0  0  0  0  0  0  0  0  0  0
   13.6780   36.3520  127.5430 C   0  0  0  0  0  0  0  0  0  0  0  0
   12.8210   37.2490  127.7990 O   0  0  0  0  0  0  0  0  0  0  0  0
   14.3150   35.6090  128.3450 O   0  0  0  0  0  0  0  0  0  0  0  0
  1 15  1  6  0  0  0
  2  1  1  0  0  0  0
  2  3  1  0  0  0  0
  3  4  1  0  0  0  0
  4 13  1  0  0  0  0
  5  4  2  0  0  0  0
  5  6  1  0  0  0  0
  6 12  1  0  0  0  0
  7  6  2  0  0  0  0
  7  8  1  0  0  0  0
  8 10  2  0  0  0  0
  9  8  1  0  0  0  0
 10 11  1  0  0  0  0
 12 11  2  0  0  0  0
 13 12  1  0  0  0  0
 13 24  1  0  0  0  0
 14  1  1  0  0  0  0
 14  5  1  0  0  0  0
 15 16  1  0  0  0  0
 17 15  1  0  0  0  0
 18 17  2  0  0  0  0
 19 17  1  0  0  0  0
 20 18  1  0  0  0  0
 21 19  2  0  0  0  0
 22 20  2  0  0  0  0
 22 21  1  0  0  0  0
 23 22  1  0  0  0  0
 24 25  1  0  0  0  0
 25 26  2  0  0  0  0
 25 27  1  0  0  0  0
M  END
>  <minimizedAffinity>
-8.00773144

>  <CNNscore>
0.289186001

>  <CNNaffinity>
5.34619522

$$$$

 OpenBabel08272602393D

 27 30  0  0  1  0  0  0  0  0999 V2000
   19.3320   35.2560  124.8340 C   0  0  1  0  0  0  0  0  0  0  0  0
   17.8040   35.0500  124.9750 C   0  0  0  0  0  0  0  0  0  0  0  0
   17.0190   36.2500  124.4130 C   0  0  0  0  0  0  0  0  0  0  0  0
   17.6610   37.5310  124.8290 C   0  0  0  0  0  0  0  0  0  0  0  0
   18.9330   37.6660  125.3600 C   0  0  0  0  0  0  0  0  0  0  0  0
   19.1380   39.0380  125.6250 C   0  0  0  0  0  0  0  0  0  0  0  0
   20.2300   39.6500  126.1490 N   0  0  0  0  0  0  0  0  0  0  0  0
   20.0940   40.9820  126.3050 C   0  0  0  0  0  0  0  0  0  0  0  0
   21.1460   41.6350  126.8290 F   0  0  0  0  0  0  0  0  0  0  0  0
   18.9790   41.7340  125.9740 C   0  0  0  0  0  0  0  0  0  0  0  0
   17.8720   41.1010  125.4220 C   0  0  0  0  0  0  0  0  0  0  0  0
   17.9770   39.7190  125.2490 C   0  0  0  0  0  0  0  0  0  0  0  0
   17.0940   38.7820  124.7410 N   0  0  0  0  0  0  0  0  0  0  0  0
   19.8410   36.5050  125.6040 C   0  0  0  0  0  0  0  0  0  0  0  0
   20.1170   34.0310  125.1140 N   0  0  0  0  0  0  0  0  0  0  0  0
   21.2030   33.7260  124.1940 C   0  0  0  0  0  0  0  0  0  0  0  0
   19.4990   32.9220  125.6740 C   0  0  0  0  0  0  0  0  0  0  0  0
   19.1230   31.9040  124.8850 N   0  0  0  0  0  0  0  0  0  0  0  0
   19.2680   32.9050  127.0020 N   0  0  0  0  0  0  0  0  0  0  0  0
   18.5130   30.8370  125.4460 C   0  0  0  0  0  0  0  0  0  0  0  0
   18.6520   31.8210  127.5280 C   0  0  0  0  0  0  0  0  0  0  0  0
   18.2480   30.7430  126.7850 C   0  0  0  0  0  0  0  0  0  0  0  0
   17.4710   29.3880  127.4800 Cl  0  0  0  0  0  0  0  0  0  0  0  0
   15.8330   39.1000  124.0880 C   0  0  0  0  0  0  0  0  0  0  0  0
   14.6420   38.5460  124.8480 C   0  0  0  0  0  0  0  0  0  0  0  0
   13.9050   37.7490  124.1950 O   0  0  0  0  0  0  0  0  0  0  0  0
   14.5620   38.8870  126.0640 O   0  0  0  0  0  0  0  0  0  0  0  0
  1  2  1  0  0  0  0
  1 15  1  1  0  0  0
  1 14  1  0  0  0  0
  3  4  1  0  0  0  0
  3  2  1  0  0  0  0
  4  5  2  0  0  0  0
  5 14  1  0  0  0  0
  5  6  1  0  0  0  0
  6  7  1  0  0  0  0
  7  8  2  0  0  0  0
  8  9  1  0  0  0  0
 10  8  1  0  0  0  0
 11 10  2  0  0  0  0
 12 11  1  0  0  0  0
 12  6  2  0  0  0  0
 13  4  1  0  0  0  0
 13 12  1  0  0  0  0
 15 17  1  0  0  0  0
 16 15  1  0  0  0  0
 17 19  1  0  0  0  0
 18 20  1  0  0  0  0
 18 17  2  0  0  0  0
 19 21  2  0  0  0  0
 20 22  2  0  0  0  0
 22 23  1  0  0  0  0
 22 21  1  0  0  0  0
 24 13  1  0  0  0  0
 24 25  1  0  0  0  0
 25 27  1  0  0  0  0
 26 25  2  0  0  0  0
M  END
>  <minimizedAffinity>
-8.00635624

>  <CNNscore>
0.265544862

>  <CNNaffinity>
6.15177107

$$$$

 OpenBabel08272602393D

 27 30  0  0  1  0  0  0  0  0999 V2000
   18.2310   37.5680  125.1060 C   0  0  1  0  0  0  0  0  0  0  0  0
   19.6600   38.1120  125.3560 C   0  0  0  0  0  0  0  0  0  0  0  0
   19.6460   39.3110  126.3220 C   0  0  0  0  0  0  0  0  0  0  0  0
   18.5220   40.2340  125.9870 C   0  0  0  0  0  0  0  0  0  0  0  0
   17.4500   39.9400  125.1620 C   0  0  0  0  0  0  0  0  0  0  0  0
   16.6310   41.0900  125.1060 C   0  0  0  0  0  0  0  0  0  0  0  0
   15.4730   41.2790  124.4240 N   0  0  0  0  0  0  0  0  0  0  0  0
   14.9480   42.5120  124.5580 C   0  0  0  0  0  0  0  0  0  0  0  0
   13.8040   42.7540  123.8950 F   0  0  0  0  0  0  0  0  0  0  0  0
   15.4740   43.5470  125.3150 C   0  0  0  0  0  0  0  0  0  0  0  0
   16.6510   43.3390  126.0240 C   0  0  0  0  0  0  0  0  0  0  0  0
   17.2250   42.0700  125.9050 C   0  0  0  0  0  0  0  0  0  0  0  0
   18.3690   41.5190  126.4560 N   0  0  0  0  0  0  0  0  0  0  0  0
   17.2910   38.6270  124.4680 C   0  0  0  0  0  0  0  0  0  0  0  0
   18.2150   36.2650  124.4010 N   0  0  0  0  0  0  0  0  0  0  0  0
   17.1570   36.0660  123.4210 C   0  0  0  0  0  0  0  0  0  0  0  0
   18.6260   35.1140  125.0580 C   0  0  0  0  0  0  0  0  0  0  0  0
   19.2890   34.1640  124.3810 N   0  0  0  0  0  0  0  0  0  0  0  0
   18.3250   34.9660  126.3640 N   0  0  0  0  0  0  0  0  0  0  0  0
   19.6720   33.0470  125.0360 C   0  0  0  0  0  0  0  0  0  0  0  0
   18.7220   33.8320  126.9850 C   0  0  0  0  0  0  0  0  0  0  0  0
   19.4080   32.8240  126.3600 C   0  0  0  0  0  0  0  0  0  0  0  0
   19.8950   31.4020  127.1730 Cl  0  0  0  0  0  0  0  0  0  0  0  0
   19.1870   42.1550  127.4770 C   0  0  0  0  0  0  0  0  0  0  0  0
   18.6760   41.8670  128.8780 C   0  0  0  0  0  0  0  0  0  0  0  0
   17.8040   42.6760  129.3140 O   0  0  0  0  0  0  0  0  0  0  0  0
   19.1270   40.8170  129.4190 O   0  0  0  0  0  0  0  0  0  0  0  0
  1 15  1  6  0  0  0
  1  2  1  0  0  0  0
  2  3  1  0  0  0  0
  4  3  1  0  0  0  0
  4 13  1  0  0  0  0
  5  4  2  0  0  0  0
  6  5  1  0  0  0  0
  6 12  1  0  0  0  0
  7  8  1  0  0  0  0
  7  6  2  0  0  0  0
  8 10  2  0  0  0  0
  9  8  1  0  0  0  0
 10 11  1  0  0  0  0
 12 11  2  0  0  0  0
 12 13  1  0  0  0  0
 13 24  1  0  0  0  0
 14  1  1  0  0  0  0
 14  5  1  0  0  0  0
 15 17  1  0  0  0  0
 16 15  1  0  0  0  0
 17 19  1  0  0  0  0
 18 20  1  0  0  0  0
 18 17  2  0  0  0  0
 19 21  2  0  0  0  0
 20 22  2  0  0  0  0
 22 21  1  0  0  0  0
 22 23  1  0  0  0  0
 24 25  1  0  0  0  0
 25 26  2  0  0  0  0
 25 27  1  0  0  0  0
M  END
>  <minimizedAffinity>
-7.93401194

>  <CNNscore>
0.196994334

>  <CNNaffinity>
5.92115259

$$$$

 OpenBabel08272602393D

 27 30  0  0  1  0  0  0  0  0999 V2000
   19.2940   35.2210  125.3250 C   0  0  1  0  0  0  0  0  0  0  0  0
   20.3050   36.3500  125.6440 C   0  0  0  0  0  0  0  0  0  0  0  0
   19.5880   37.6580  126.0280 C   0  0  0  0  0  0  0  0  0  0  0  0
   18.4300   37.9000  125.1180 C   0  0  0  0  0  0  0  0  0  0  0  0
   17.8610   36.9710  124.2640 C   0  0  0  0  0  0  0  0  0  0  0  0
   16.8070   37.6160  123.5800 C   0  0  0  0  0  0  0  0  0  0  0  0
   15.9650   37.1100  122.6430 N   0  0  0  0  0  0  0  0  0  0  0  0
   15.0780   38.0020  122.1590 C   0  0  0  0  0  0  0  0  0  0  0  0
   14.2260   37.5530  121.2220 F   0  0  0  0  0  0  0  0  0  0  0  0
   14.9630   39.3300  122.5390 C   0  0  0  0  0  0  0  0  0  0  0  0
   15.8190   39.8340  123.5110 C   0  0  0  0  0  0  0  0  0  0  0  0
   16.7530   38.9360  124.0330 C   0  0  0  0  0  0  0  0  0  0  0  0
   17.7400   39.0840  124.9940 N   0  0  0  0  0  0  0  0  0  0  0  0
   18.3640   35.5710  124.1310 C   0  0  0  0  0  0  0  0  0  0  0  0
   19.9230   33.8840  125.2090 N   0  0  0  0  0  0  0  0  0  0  0  0
   20.6960   33.6290  124.0020 C   0  0  0  0  0  0  0  0  0  0  0  0
   19.2930   32.7700  125.7440 C   0  0  0  0  0  0  0  0  0  0  0  0
   19.0400   32.7200  127.0600 N   0  0  0  0  0  0  0  0  0  0  0  0
   18.9690   31.7480  124.9260 N   0  0  0  0  0  0  0  0  0  0  0  0
   18.4340   31.6230  127.5640 C   0  0  0  0  0  0  0  0  0  0  0  0
   18.3670   30.6650  125.4680 C   0  0  0  0  0  0  0  0  0  0  0  0
   18.0710   30.5470  126.8000 C   0  0  0  0  0  0  0  0  0  0  0  0
   17.3090   29.1640  127.4540 Cl  0  0  0  0  0  0  0  0  0  0  0  0
   17.9110   40.2620  125.8310 C   0  0  0  0  0  0  0  0  0  0  0  0
   19.0250   41.1620  125.3270 C   0  0  0  0  0  0  0  0  0  0  0  0
   19.0520   41.3410  124.0730 O   0  0  0  0  0  0  0  0  0  0  0  0
   19.7530   41.6840  126.2200 O   0  0  0  0  0  0  0  0  0  0  0  0
  1 15  1  6  0  0  0
  1  2  1  0  0  0  0
  2  3  1  0  0  0  0
  4  3  1  0  0  0  0
  5  4  2  0  0  0  0
  6 12  1  0  0  0  0
  6  5  1  0  0  0  0
  7  6  2  0  0  0  0
  8 10  2  0  0  0  0
  8  7  1  0  0  0  0
  9  8  1  0  0  0  0
 10 11  1  0  0  0  0
 11 12  2  0  0  0  0
 12 13  1  0  0  0  0
 13  4  1  0  0  0  0
 13 24  1  0  0  0  0
 14  5  1  0  0  0  0
 14  1  1  0  0  0  0
 15 17  1  0  0  0  0
 16 15  1  0  0  0  0
 17 18  1  0  0  0  0
 18 20  2  0  0  0  0
 19 21  1  0  0  0  0
 19 17  2  0  0  0  0
 21 22  2  0  0  0  0
 22 23  1  0  0  0  0
 22 20  1  0  0  0  0
 25 24  1  0  0  0  0
 25 27  1  0  0  0  0
 26 25  2  0  0  0  0
M  END
>  <minimizedAffinity>
-8.74804401

>  <CNNscore>
0.189829811

>  <CNNaffinity>
5.90939856

$$$$
