BUSSTZHQFNNSKW-UHFFFAOYSA-N
     RDKit          3D

 32 35  0  0  0  0  0  0  0  0999 V2000
    9.1130   10.1770   -6.9980 O   0  0  0  0  0  0  0  0  0  0  0  0
    9.7610   10.8010   -7.8300 C   0  0  0  0  0  0  0  0  0  0  0  0
   10.3480   10.2980   -8.9730 N   0  0  0  0  0  0  0  0  0  0  0  0
   10.3890    8.9530   -9.4240 C   0  0  0  0  0  0  0  0  0  0  0  0
   10.3730    7.8700   -8.5360 C   0  0  0  0  0  0  0  0  0  0  0  0
   10.4120    6.5520   -9.0060 C   0  0  0  0  0  0  0  0  0  0  0  0
   10.4710    6.3030  -10.3710 C   0  0  0  0  0  0  0  0  0  0  0  0
   10.5260    4.5210  -10.9990 Br  0  0  0  0  0  0  0  0  0  0  0  0
   10.4930    7.3570  -11.2780 C   0  0  0  0  0  0  0  0  0  0  0  0
   10.4540    8.6840  -10.8140 C   0  0  0  0  0  0  0  0  0  0  0  0
   10.4900    9.8040  -11.7960 C   0  0  0  0  0  0  0  0  0  0  0  0
   11.3780   10.6340  -11.8890 O   0  0  0  0  0  0  0  0  0  0  0  0
    9.4200    9.8370  -12.6090 O   0  0  0  0  0  0  0  0  0  0  0  0
    9.9320   12.2670   -7.6200 C   0  0  0  0  0  0  0  0  0  0  0  0
    9.4430   13.2130   -8.5330 C   0  0  0  0  0  0  0  0  0  0  0  0
    9.6390   14.5780   -8.3030 C   0  0  0  0  0  0  0  0  0  0  0  0
   10.3400   15.0050   -7.1760 C   0  0  0  0  0  0  0  0  0  0  0  0
   10.8580   14.0580   -6.2850 C   0  0  0  0  0  0  0  0  0  0  0  0
   11.7380   14.5940   -4.8320 S   0  0  0  0  0  0  0  0  0  0  0  0
   11.7650   13.4740   -3.9150 O   0  0  0  0  0  0  0  0  0  0  0  0
   11.1740   15.8670   -4.4350 O   0  0  0  0  0  0  0  0  0  0  0  0
   13.3090   14.8680   -5.3950 N   0  0  0  0  0  0  0  0  0  0  0  0
   14.3840   15.0220   -4.3880 C   0  0  0  0  0  0  0  0  0  0  0  0
   15.5450   15.7990   -5.0090 C   0  0  0  0  0  0  0  0  0  0  0  0
   16.0160   15.1630   -6.2920 C   0  0  0  0  0  0  0  0  0  0  0  0
   17.3120   15.4140   -6.7650 C   0  0  0  0  0  0  0  0  0  0  0  0
   17.7440   14.8540   -7.9660 C   0  0  0  0  0  0  0  0  0  0  0  0
   16.8840   14.0490   -8.7090 C   0  0  0  0  0  0  0  0  0  0  0  0
   15.5870   13.8060   -8.2540 C   0  0  0  0  0  0  0  0  0  0  0  0
   15.1390   14.3670   -7.0490 C   0  0  0  0  0  0  0  0  0  0  0  0
   13.7290   14.0730   -6.5720 C   0  0  0  0  0  0  0  0  0  0  0  0
   10.6400   12.6930   -6.4910 C   0  0  0  0  0  0  0  0  0  0  0  0
  1  2  2  0
  2  3  1  0
  3  4  1  0
  4  5  2  0
  5  6  1  0
  6  7  2  0
  7  8  1  0
  7  9  1  0
  9 10  2  0
 10 11  1  0
 11 12  2  0
 11 13  1  0
  2 14  1  0
 14 15  2  0
 15 16  1  0
 16 17  2  0
 17 18  1  0
 18 19  1  0
 19 20  2  0
 19 21  2  0
 19 22  1  0
 22 23  1  0
 23 24  1  0
 24 25  1  0
 25 26  2  0
 26 27  1  0
 27 28  2  0
 28 29  1  0
 29 30  2  0
 30 31  1  0
 18 32  2  0
 10  4  1  0
 32 14  1  0
 31 22  1  0
 30 25  1  0
M  END
$$$$
