IQWIIYXELSKEMG-BUVRLJJBSA-N
     RDKit          3D

 29 30  0  0  0  0  0  0  0  0999 V2000
  -14.5200   -1.8070  -26.6910 C   0  0  0  0  0  0  0  0  0  0  0  0
  -15.1320   -2.5070  -25.4940 C   0  0  0  0  0  0  0  0  0  0  0  0
  -15.0980   -3.9140  -25.7280 O   0  0  0  0  0  0  0  0  0  0  0  0
  -13.8430   -4.2460  -26.2560 N   0  0  0  0  0  0  0  0  0  0  0  0
  -13.5290   -5.4810  -25.9910 C   0  0  0  0  0  0  0  0  0  0  0  0
  -14.4160   -6.4040  -25.1830 C   0  0  0  0  0  0  0  0  0  0  0  0
  -12.1820   -6.0190  -26.4470 C   0  0  1  0  0  0  0  0  0  0  0  0
  -12.0780   -7.5340  -26.2170 C   0  0  0  0  0  0  0  0  0  0  0  0
  -10.8620   -7.9130  -25.4000 C   0  0  0  0  0  0  0  0  0  0  0  0
   -9.5730   -7.7780  -25.9290 C   0  0  0  0  0  0  0  0  0  0  0  0
   -8.4470   -8.1100  -25.1670 C   0  0  0  0  0  0  0  0  0  0  0  0
   -8.5960   -8.5790  -23.8640 C   0  0  0  0  0  0  0  0  0  0  0  0
   -7.5860   -8.9370  -23.0140 O   0  0  0  0  0  0  0  0  0  0  0  0
   -7.6690   -8.4560  -21.6690 C   0  0  0  0  0  0  0  0  0  0  0  0
   -6.2540   -8.1410  -21.1920 C   0  0  0  0  0  0  0  0  0  0  0  0
   -6.1330   -6.7530  -20.6830 C   0  0  0  0  0  0  0  0  0  0  0  0
   -4.9780   -6.0300  -20.8800 N   0  0  0  0  0  0  0  0  0  0  0  0
   -5.2220   -4.8700  -20.3040 C   0  0  0  0  0  0  0  0  0  0  0  0
   -4.3430   -3.6690  -20.1980 C   0  0  0  0  0  0  0  0  0  0  0  0
   -4.7560   -2.8110  -19.0030 C   0  0  0  0  0  0  0  0  0  0  0  0
   -4.3860   -2.8560  -21.4910 C   0  0  0  0  0  0  0  0  0  0  0  0
   -6.4600   -4.7750  -19.7290 O   0  0  0  0  0  0  0  0  0  0  0  0
   -7.0400   -5.9870  -19.9810 C   0  0  0  0  0  0  0  0  0  0  0  0
   -8.4060   -6.1890  -19.4700 C   0  0  0  0  0  0  0  0  0  0  0  0
   -9.8810   -8.7130  -23.3310 C   0  0  0  0  0  0  0  0  0  0  0  0
  -11.0060   -8.3830  -24.0900 C   0  0  0  0  0  0  0  0  0  0  0  0
  -11.9420   -5.6550  -27.8930 C   0  0  0  0  0  0  0  0  0  0  0  0
  -12.0590   -6.3670  -28.8760 O   0  0  0  0  0  0  0  0  0  0  0  0
  -11.5660   -4.3660  -28.0390 O   0  0  0  0  0  0  0  0  0  0  0  0
  1  2  1  0
  2  3  1  0
  3  4  1  0
  4  5  2  0
  5  6  1  0
  5  7  1  0
  7  8  1  6
  8  9  1  0
  9 10  2  0
 10 11  1  0
 11 12  2  0
 12 13  1  0
 13 14  1  0
 14 15  1  0
 15 16  1  0
 16 17  1  0
 17 18  2  0
 18 19  1  0
 19 20  1  0
 19 21  1  0
 18 22  1  0
 22 23  1  0
 23 24  1  0
 12 25  1  0
 25 26  2  0
  7 27  1  0
 27 28  2  0
 27 29  1  0
 26  9  1  0
 23 16  2  0
M  END
$$$$
