VZYDRNUBBJZACH-UHFFFAOYSA-N
     RDKit          3D

 39 45  0  0  0  0  0  0  0  0999 V2000
    8.5170  -14.3360   22.4900 N   0  0  0  0  0  0  0  0  0  0  0  0
    9.1980  -15.0810   21.9170 C   0  0  0  0  0  0  0  0  0  0  0  0
   10.0370  -16.0360   21.1840 C   0  0  0  0  0  0  0  0  0  0  0  0
    9.3110  -17.3590   20.9700 C   0  0  0  0  0  0  0  0  0  0  0  0
    7.9840  -17.1640   20.3390 N   0  0  0  0  0  0  0  0  0  0  0  0
    6.8670  -17.9110   20.5800 C   0  0  0  0  0  0  0  0  0  0  0  0
    5.8470  -17.3200   19.8660 C   0  0  0  0  0  0  0  0  0  0  0  0
    4.4660  -17.7250   19.9280 C   0  0  0  0  0  0  0  0  0  0  0  0
    3.6980  -17.5180   18.8300 N   0  0  0  0  0  0  0  0  0  0  0  0
    2.4260  -17.9540   18.8700 C   0  0  0  0  0  0  0  0  0  0  0  0
    1.7960  -18.5820   19.8790 N   0  0  0  0  0  0  0  0  0  0  0  0
    2.6010  -18.7420   20.9400 C   0  0  0  0  0  0  0  0  0  0  0  0
    2.2260  -19.3350   22.1150 N   0  0  0  0  0  0  0  0  0  0  0  0
    3.2750  -19.3080   23.0010 C   0  0  0  0  0  0  0  0  0  0  0  0
    4.3460  -18.7090   22.3680 C   0  0  0  0  0  0  0  0  0  0  0  0
    3.9270  -18.3490   21.0540 C   0  0  0  0  0  0  0  0  0  0  0  0
    6.4720  -16.2600   19.1820 C   0  0  0  0  0  0  0  0  0  0  0  0
    7.7800  -16.1830   19.4410 N   0  0  0  0  0  0  0  0  0  0  0  0
    9.1790  -18.2500   22.2360 C   0  0  0  0  0  0  0  0  0  0  0  0
   10.4240  -18.9500   21.8160 N   0  0  0  0  0  0  0  0  0  0  0  0
   10.3010  -20.4130   21.9910 C   0  0  0  0  0  0  0  0  0  0  0  0
    9.3000  -21.0140   20.9920 C   0  0  0  0  0  0  0  0  0  0  0  0
    9.1250  -22.5150   21.2430 C   0  0  0  0  0  0  0  0  0  0  0  0
    8.7330  -22.8600   22.6180 N   0  0  0  0  0  0  0  0  0  0  0  0
    7.3130  -22.5750   22.8980 C   0  0  0  0  0  0  0  0  0  0  0  0
    6.4390  -23.7860   22.6830 C   0  0  0  0  0  0  0  0  0  0  0  0
    6.7970  -25.0130   23.2630 C   0  0  0  0  0  0  0  0  0  0  0  0
    6.0060  -26.1530   23.0750 C   0  0  0  0  0  0  0  0  0  0  0  0
    6.3550  -27.3950   23.6330 C   0  0  0  0  0  0  0  0  0  0  0  0
    5.5500  -28.5120   23.4210 C   0  0  0  0  0  0  0  0  0  0  0  0
    4.3950  -28.3890   22.6570 C   0  0  0  0  0  0  0  0  0  0  0  0
    4.0510  -27.1500   22.1070 C   0  0  0  0  0  0  0  0  0  0  0  0
    4.8380  -26.0230   22.3000 C   0  0  0  0  0  0  0  0  0  0  0  0
    4.4710  -24.8570   21.7450 N   0  0  0  0  0  0  0  0  0  0  0  0
    5.2660  -23.7790   21.9400 C   0  0  0  0  0  0  0  0  0  0  0  0
    4.6670  -22.3760   21.1420 Cl  0  0  0  0  0  0  0  0  0  0  0  0
    9.6310  -22.2370   23.5980 C   0  0  0  0  0  0  0  0  0  0  0  0
    9.8180  -20.7300   23.4150 C   0  0  0  0  0  0  0  0  0  0  0  0
   10.1180  -18.5620   20.4090 C   0  0  0  0  0  0  0  0  0  0  0  0
  1  2  3  0
  2  3  1  0
  3  4  1  0
  4  5  1  0
  5  6  1  0
  6  7  2  0
  7  8  1  0
  8  9  2  0
  9 10  1  0
 10 11  2  0
 11 12  1  0
 12 13  1  0
 13 14  1  0
 14 15  2  0
 15 16  1  0
  7 17  1  0
 17 18  2  0
  4 19  1  0
 19 20  1  0
 20 21  1  0
 21 22  1  0
 22 23  1  0
 23 24  1  0
 24 25  1  0
 25 26  1  0
 26 27  2  0
 27 28  1  0
 28 29  2  0
 29 30  1  0
 30 31  2  0
 31 32  1  0
 32 33  2  0
 33 34  1  0
 34 35  2  0
 35 36  1  0
 24 37  1  0
 37 38  1  0
 20 39  1  0
 39  4  1  0
 18  5  1  0
 38 21  1  0
 16  8  1  0
 35 26  1  0
 16 12  2  0
 33 28  1  0
M  END
$$$$
