KVNPGZVFMJXRBG-SFHVURJKSA-N
     RDKit          3D

 31 35  0  0  0  0  0  0  0  0999 V2000
   12.8810  -26.5980   30.5510 C   0  0  0  0  0  0  0  0  0  0  0  0
   12.6830  -26.7860   29.1340 N   0  0  0  0  0  0  0  0  0  0  0  0
   13.6440  -26.9730   28.1890 C   0  0  0  0  0  0  0  0  0  0  0  0
   12.9710  -27.1300   27.0010 C   0  0  0  0  0  0  0  0  0  0  0  0
   11.5900  -27.0260   27.3260 C   0  0  0  0  0  0  0  0  0  0  0  0
   10.4350  -27.1070   26.4330 C   0  0  0  0  0  0  0  0  0  0  0  0
    9.6790  -28.2890   26.4330 C   0  0  0  0  0  0  0  0  0  0  0  0
    8.5520  -28.4280   25.6130 C   0  0  0  0  0  0  0  0  0  0  0  0
    8.1490  -27.3950   24.7550 C   0  0  0  0  0  0  0  0  0  0  0  0
    7.0220  -27.5970   23.9320 N   0  0  0  0  0  0  0  0  0  0  0  0
    6.2450  -26.7290   23.2400 C   0  0  0  0  0  0  0  0  0  0  0  0
    6.4680  -25.4280   23.0060 N   0  0  0  0  0  0  0  0  0  0  0  0
    5.4060  -25.0000   22.2850 N   0  0  0  0  0  0  0  0  0  0  0  0
    5.3420  -23.5850   21.8950 C   0  0  1  0  0  0  0  0  0  0  0  0
    5.9480  -22.7050   23.0040 C   0  0  0  0  0  0  0  0  0  0  0  0
    5.4280  -21.3360   22.9340 C   0  0  0  0  0  0  0  0  0  0  0  0
    4.9970  -20.2600   22.8780 N   0  0  0  0  0  0  0  0  0  0  0  0
    6.0520  -23.3890   20.5710 C   0  0  0  0  0  0  0  0  0  0  0  0
    5.3730  -23.7020   19.2590 C   0  0  0  0  0  0  0  0  0  0  0  0
    5.6520  -22.2750   19.6350 C   0  0  0  0  0  0  0  0  0  0  0  0
    4.5150  -26.0010   22.0420 C   0  0  0  0  0  0  0  0  0  0  0  0
    3.3030  -25.9510   21.3240 C   0  0  0  0  0  0  0  0  0  0  0  0
    2.6370  -27.1210   21.2580 C   0  0  0  0  0  0  0  0  0  0  0  0
    3.1160  -28.2830   21.8530 N   0  0  0  0  0  0  0  0  0  0  0  0
    4.3100  -28.3750   22.5680 C   0  0  0  0  0  0  0  0  0  0  0  0
    4.7010  -29.4170   23.0810 O   0  0  0  0  0  0  0  0  0  0  0  0
    5.0320  -27.1260   22.6440 C   0  0  0  0  0  0  0  0  0  0  0  0
    8.9180  -26.2250   24.7440 C   0  0  0  0  0  0  0  0  0  0  0  0
   10.0430  -26.0750   25.5710 C   0  0  0  0  0  0  0  0  0  0  0  0
   10.9090  -24.5820   25.4290 Cl  0  0  0  0  0  0  0  0  0  0  0  0
   11.4360  -26.7790   28.6380 N   0  0  0  0  0  0  0  0  0  0  0  0
  1  2  1  0
  2  3  1  0
  3  4  2  0
  4  5  1  0
  5  6  1  0
  6  7  2  0
  7  8  1  0
  8  9  2  0
  9 10  1  0
 10 11  1  0
 11 12  2  0
 12 13  1  0
 13 14  1  0
 14 15  1  1
 15 16  1  0
 16 17  3  0
 14 18  1  0
 18 19  1  0
 19 20  1  0
 13 21  1  0
 21 22  1  0
 22 23  2  0
 23 24  1  0
 24 25  1  0
 25 26  2  0
 25 27  1  0
  9 28  1  0
 28 29  2  0
 29 30  1  0
  5 31  2  0
 31  2  1  0
 29  6  1  0
 27 11  1  0
 20 18  1  0
 27 21  2  0
M  END
$$$$
