LHNIIDJUOCFXAP-UHFFFAOYSA-N
     RDKit          3D

 35 40  0  0  0  0  0  0  0  0999 V2000
   42.5180   50.5080   43.8080 C   0  0  0  0  0  0  0  0  0  0  0  0
   41.5310   50.6740   42.3350 S   0  0  0  0  0  0  0  0  0  0  0  0
   41.6200   52.0510   41.9010 O   0  0  0  0  0  0  0  0  0  0  0  0
   41.8820   49.5870   41.4470 O   0  0  0  0  0  0  0  0  0  0  0  0
   39.9710   50.4050   42.8920 N   0  0  0  0  0  0  0  0  0  0  0  0
   39.5190   49.0240   43.1890 C   0  0  0  0  0  0  0  0  0  0  0  0
   38.5040   48.5190   42.1460 C   0  0  0  0  0  0  0  0  0  0  0  0
   37.3660   49.4270   41.8770 N   0  0  0  0  0  0  0  0  0  0  0  0
   36.4160   49.5030   43.0010 C   0  0  0  0  0  0  0  0  0  0  0  0
   35.2460   48.5770   42.8090 C   0  0  0  0  0  0  0  0  0  0  0  0
   34.8600   47.9170   41.6650 C   0  0  0  0  0  0  0  0  0  0  0  0
   33.7000   47.1110   41.8560 C   0  0  0  0  0  0  0  0  0  0  0  0
   33.1540   46.3500   40.8830 N   0  0  0  0  0  0  0  0  0  0  0  0
   32.0850   45.6450   41.2440 C   0  0  0  0  0  0  0  0  0  0  0  0
   31.4340   44.7860   40.2370 C   0  0  0  0  0  0  0  0  0  0  0  0
   30.5630   43.7300   40.6080 C   0  0  0  0  0  0  0  0  0  0  0  0
   29.9330   42.9080   39.6720 C   0  0  0  0  0  0  0  0  0  0  0  0
   30.1380   43.0960   38.3070 C   0  0  0  0  0  0  0  0  0  0  0  0
   30.9960   44.1330   37.9320 C   0  0  0  0  0  0  0  0  0  0  0  0
   31.3900   44.5590   36.6910 N   0  0  0  0  0  0  0  0  0  0  0  0
   32.2390   45.5970   36.7090 N   0  0  0  0  0  0  0  0  0  0  0  0
   32.3890   45.8450   38.0130 C   0  0  0  0  0  0  0  0  0  0  0  0
   31.6400   44.9690   38.8440 C   0  0  0  0  0  0  0  0  0  0  0  0
   31.5390   45.6580   42.4740 N   0  0  0  0  0  0  0  0  0  0  0  0
   32.0400   46.4310   43.4760 C   0  0  0  0  0  0  0  0  0  0  0  0
   31.3590   46.3890   44.6850 N   0  0  0  0  0  0  0  0  0  0  0  0
   31.0720   47.6870   45.3200 C   0  0  0  0  0  0  0  0  0  0  0  0
   30.8510   47.5280   46.8310 C   0  0  0  0  0  0  0  0  0  0  0  0
   29.8610   46.5310   47.1180 O   0  0  0  0  0  0  0  0  0  0  0  0
   30.3010   45.2630   46.6180 C   0  0  0  0  0  0  0  0  0  0  0  0
   30.4910   45.2830   45.0930 C   0  0  0  0  0  0  0  0  0  0  0  0
   33.1870   47.1870   43.1510 C   0  0  0  0  0  0  0  0  0  0  0  0
   34.1880   48.2300   44.1000 S   0  0  0  0  0  0  0  0  0  0  0  0
   37.8950   50.7660   41.5380 C   0  0  0  0  0  0  0  0  0  0  0  0
   38.8890   51.3590   42.5560 C   0  0  0  0  0  0  0  0  0  0  0  0
  1  2  1  0
  2  3  2  0
  2  4  2  0
  2  5  1  0
  5  6  1  0
  6  7  1  0
  7  8  1  0
  8  9  1  0
  9 10  1  0
 10 11  2  0
 11 12  1  0
 12 13  2  0
 13 14  1  0
 14 15  1  0
 15 16  2  0
 16 17  1  0
 17 18  2  0
 18 19  1  0
 19 20  1  0
 20 21  1  0
 21 22  2  0
 22 23  1  0
 14 24  2  0
 24 25  1  0
 25 26  1  0
 26 27  1  0
 27 28  1  0
 28 29  1  0
 29 30  1  0
 30 31  1  0
 25 32  2  0
 32 33  1  0
  8 34  1  0
 34 35  1  0
 35  5  1  0
 33 10  1  0
 32 12  1  0
 23 15  1  0
 31 26  1  0
 23 19  2  0
M  END
$$$$
