JTWPXAPBCSEZRE-UHFFFAOYSA-N
     RDKit          3D

 26 29  0  0  0  0  0  0  0  0999 V2000
   -6.0520    9.0200   14.6730 N   0  0  0  0  0  0  0  0  0  0  0  0
   -6.4200    9.1590   15.9060 C   0  0  0  0  0  0  0  0  0  0  0  0
   -7.5650    8.5630   16.3270 N   0  0  0  0  0  0  0  0  0  0  0  0
   -5.5780    9.9730   16.8370 C   0  0  0  0  0  0  0  0  0  0  0  0
   -5.0390    9.3500   17.9780 C   0  0  0  0  0  0  0  0  0  0  0  0
   -4.2580   10.1430   18.8230 C   0  0  0  0  0  0  0  0  0  0  0  0
   -3.5950    9.8740   19.9890 N   0  0  0  0  0  0  0  0  0  0  0  0
   -2.9700   11.0200   20.4250 C   0  0  0  0  0  0  0  0  0  0  0  0
   -2.1670   11.0900   21.6510 C   0  0  0  0  0  0  0  0  0  0  0  0
   -0.9370   11.7630   21.6190 C   0  0  0  0  0  0  0  0  0  0  0  0
   -0.1350   11.8530   22.7600 C   0  0  0  0  0  0  0  0  0  0  0  0
   -0.5460   11.2750   23.9620 C   0  0  0  0  0  0  0  0  0  0  0  0
   -1.7650   10.6040   24.0250 C   0  0  0  0  0  0  0  0  0  0  0  0
   -2.2970    9.9880   25.1300 O   0  0  0  0  0  0  0  0  0  0  0  0
   -1.5140    9.9590   26.3290 C   0  0  1  0  0  0  0  0  0  0  0  0
   -2.4670    9.6900   27.4920 C   0  0  0  0  0  0  0  0  0  0  0  0
   -2.3890    8.1870   27.6760 C   0  0  0  0  0  0  0  0  0  0  0  0
   -0.9700    7.8840   27.4700 N   0  0  0  0  0  0  0  0  0  0  0  0
   -0.5620    8.7510   26.3490 C   0  0  0  0  0  0  0  0  0  0  0  0
   -2.5610   10.5140   22.8680 C   0  0  0  0  0  0  0  0  0  0  0  0
   -3.7580    9.8340   22.9630 O   0  0  0  0  0  0  0  0  0  0  0  0
   -3.2080   12.0110   19.5810 N   0  0  0  0  0  0  0  0  0  0  0  0
   -4.0000   11.4870   18.5900 C   0  0  0  0  0  0  0  0  0  0  0  0
   -4.5380   12.1020   17.4550 C   0  0  0  0  0  0  0  0  0  0  0  0
   -5.3230   11.3290   16.5930 C   0  0  0  0  0  0  0  0  0  0  0  0
   -5.8320   11.9370   15.5080 F   0  0  0  0  0  0  0  0  0  0  0  0
  1  2  2  0
  2  3  1  0
  2  4  1  0
  4  5  2  0
  5  6  1  0
  6  7  1  0
  7  8  1  0
  8  9  1  0
  9 10  2  0
 10 11  1  0
 11 12  2  0
 12 13  1  0
 13 14  1  0
 15 14  1  6
 15 16  1  0
 16 17  1  0
 17 18  1  0
 18 19  1  0
 13 20  2  0
 20 21  1  0
  8 22  2  0
 22 23  1  0
 23 24  1  0
 24 25  2  0
 25 26  1  0
 25  4  1  0
 23  6  2  0
 20  9  1  0
 19 15  1  0
M  END
$$$$
