XXZBELJQKKGJRL-FMFFXOCNSA-N
     RDKit          3D

 38 41  0  0  0  0  0  0  0  0999 V2000
  -11.3770   -7.8070  -31.4250 C   0  0  0  0  0  0  0  0  0  0  0  0
  -10.2560   -6.9660  -30.8480 C   0  0  0  0  0  0  0  0  0  0  0  0
  -10.3180   -5.6690  -30.7570 N   0  0  0  0  0  0  0  0  0  0  0  0
  -11.5430   -5.1830  -31.2370 O   0  0  0  0  0  0  0  0  0  0  0  0
  -12.0210   -4.1750  -30.3410 C   0  0  0  0  0  0  0  0  0  0  0  0
  -12.5240   -4.8030  -29.0610 C   0  0  0  0  0  0  0  0  0  0  0  0
  -13.5160   -5.7990  -29.0800 C   0  0  0  0  0  0  0  0  0  0  0  0
  -13.9960   -6.3440  -27.8880 C   0  0  0  0  0  0  0  0  0  0  0  0
  -13.4980   -5.8850  -26.6750 C   0  0  0  0  0  0  0  0  0  0  0  0
  -13.9620   -6.4070  -25.5310 F   0  0  0  0  0  0  0  0  0  0  0  0
  -12.5300   -4.8890  -26.6300 C   0  0  0  0  0  0  0  0  0  0  0  0
  -12.0450   -4.3450  -27.8210 C   0  0  0  0  0  0  0  0  0  0  0  0
   -8.9920   -7.6500  -30.3430 C   0  0  1  0  0  0  0  0  0  0  0  0
   -9.3070   -8.9080  -29.5230 C   0  0  0  0  0  0  0  0  0  0  0  0
   -9.4940   -8.6330  -28.0510 C   0  0  0  0  0  0  0  0  0  0  0  0
  -10.7790   -8.5500  -27.5020 C   0  0  0  0  0  0  0  0  0  0  0  0
  -10.9470   -8.3110  -26.1360 C   0  0  0  0  0  0  0  0  0  0  0  0
   -9.8430   -8.1570  -25.2950 C   0  0  0  0  0  0  0  0  0  0  0  0
  -10.1600   -7.9230  -23.9860 O   0  0  0  0  0  0  0  0  0  0  0  0
  -10.7390   -8.9790  -23.2130 C   0  0  0  0  0  0  0  0  0  0  0  0
  -10.1750   -9.0150  -21.7910 C   0  0  0  0  0  0  0  0  0  0  0  0
   -8.7330   -8.6540  -21.7380 C   0  0  0  0  0  0  0  0  0  0  0  0
   -8.3250   -7.4820  -21.1410 N   0  0  0  0  0  0  0  0  0  0  0  0
   -7.0100   -7.4890  -21.2720 C   0  0  0  0  0  0  0  0  0  0  0  0
   -6.0340   -6.4980  -20.8260 C   0  0  0  0  0  0  0  0  0  0  0  0
   -6.3880   -5.1620  -20.5840 C   0  0  0  0  0  0  0  0  0  0  0  0
   -5.4320   -4.2360  -20.1580 C   0  0  0  0  0  0  0  0  0  0  0  0
   -4.1100   -4.6330  -19.9690 C   0  0  0  0  0  0  0  0  0  0  0  0
   -3.7420   -5.9560  -20.2070 C   0  0  0  0  0  0  0  0  0  0  0  0
   -4.6980   -6.8800  -20.6310 C   0  0  0  0  0  0  0  0  0  0  0  0
   -6.5230   -8.5950  -21.9210 O   0  0  0  0  0  0  0  0  0  0  0  0
   -7.6340   -9.3350  -22.2140 C   0  0  0  0  0  0  0  0  0  0  0  0
   -7.4240  -10.6030  -22.9320 C   0  0  0  0  0  0  0  0  0  0  0  0
   -8.5630   -8.2360  -25.8380 C   0  0  0  0  0  0  0  0  0  0  0  0
   -8.3890   -8.4720  -27.2060 C   0  0  0  0  0  0  0  0  0  0  0  0
   -8.0530   -7.9950  -31.4700 C   0  0  0  0  0  0  0  0  0  0  0  0
   -7.6280   -9.0980  -31.7660 O   0  0  0  0  0  0  0  0  0  0  0  0
   -7.6880   -6.9160  -32.1950 O   0  0  0  0  0  0  0  0  0  0  0  0
  1  2  1  0
  2  3  2  0
  3  4  1  0
  4  5  1  0
  5  6  1  0
  6  7  2  0
  7  8  1  0
  8  9  2  0
  9 10  1  0
  9 11  1  0
 11 12  2  0
  2 13  1  0
 13 14  1  6
 14 15  1  0
 15 16  2  0
 16 17  1  0
 17 18  2  0
 18 19  1  0
 19 20  1  0
 20 21  1  0
 21 22  1  0
 22 23  1  0
 23 24  2  0
 24 25  1  0
 25 26  2  0
 26 27  1  0
 27 28  2  0
 28 29  1  0
 29 30  2  0
 24 31  1  0
 31 32  1  0
 32 33  1  0
 18 34  1  0
 34 35  2  0
 13 36  1  0
 36 37  2  0
 36 38  1  0
 12  6  1  0
 35 15  1  0
 32 22  2  0
 30 25  1  0
M  END
$$$$
