DHSKZIRHUGFEJZ-UHFFFAOYSA-N
     RDKit          3D

 31 35  0  0  0  0  0  0  0  0999 V2000
    2.5960   27.0780  -25.4390 C   0  0  0  0  0  0  0  0  0  0  0  0
    0.8650   27.3420  -25.1250 S   0  0  0  0  0  0  0  0  0  0  0  0
    0.2280   27.7880  -26.3430 O   0  0  0  0  0  0  0  0  0  0  0  0
    0.7280   28.0780  -23.8870 O   0  0  0  0  0  0  0  0  0  0  0  0
    0.3390   25.7610  -24.8220 N   0  0  0  0  0  0  0  0  0  0  0  0
    0.5870   24.5820  -25.7200 C   0  0  0  0  0  0  0  0  0  0  0  0
   -0.7010   23.9220  -25.1490 C   0  0  0  0  0  0  0  0  0  0  0  0
   -0.5310   22.9950  -23.9530 C   0  0  0  0  0  0  0  0  0  0  0  0
    0.7420   22.2620  -23.9950 C   0  0  0  0  0  0  0  0  0  0  0  0
    1.7510   21.6900  -24.0070 N   0  0  0  0  0  0  0  0  0  0  0  0
   -1.5580   23.3390  -26.1970 N   0  0  0  0  0  0  0  0  0  0  0  0
   -1.8720   22.0140  -26.2890 C   0  0  0  0  0  0  0  0  0  0  0  0
   -2.6160   21.8910  -27.4380 C   0  0  0  0  0  0  0  0  0  0  0  0
   -2.6790   23.1970  -27.9950 C   0  0  0  0  0  0  0  0  0  0  0  0
   -3.3840   23.6100  -29.2100 C   0  0  0  0  0  0  0  0  0  0  0  0
   -3.5930   24.9850  -29.3970 C   0  0  0  0  0  0  0  0  0  0  0  0
   -4.2530   25.4680  -30.5290 C   0  0  0  0  0  0  0  0  0  0  0  0
   -4.4750   26.9070  -30.6990 C   0  0  0  0  0  0  0  0  0  0  0  0
   -5.2580   27.5730  -31.6850 C   0  0  0  0  0  0  0  0  0  0  0  0
   -5.1490   28.9140  -31.4060 C   0  0  0  0  0  0  0  0  0  0  0  0
   -4.3400   28.9970  -30.3160 N   0  0  0  0  0  0  0  0  0  0  0  0
   -3.9190   27.8060  -29.8660 N   0  0  0  0  0  0  0  0  0  0  0  0
   -4.6980   24.5460  -31.4810 C   0  0  0  0  0  0  0  0  0  0  0  0
   -4.5130   23.1790  -31.3330 C   0  0  0  0  0  0  0  0  0  0  0  0
   -4.9890   22.3860  -32.3080 N   0  0  0  0  0  0  0  0  0  0  0  0
   -4.8320   21.0510  -32.1850 C   0  0  0  0  0  0  0  0  0  0  0  0
   -4.2140   20.4530  -31.1090 C   0  0  0  0  0  0  0  0  0  0  0  0
   -3.7250   21.2790  -30.1030 C   0  0  0  0  0  0  0  0  0  0  0  0
   -3.8520   22.6850  -30.1860 C   0  0  0  0  0  0  0  0  0  0  0  0
   -2.0140   24.0680  -27.2230 N   0  0  0  0  0  0  0  0  0  0  0  0
   -1.1100   25.3770  -24.8040 C   0  0  0  0  0  0  0  0  0  0  0  0
  1  2  1  0
  2  3  2  0
  2  4  2  0
  2  5  1  0
  5  6  1  0
  6  7  1  0
  7  8  1  0
  8  9  1  0
  9 10  3  0
  7 11  1  0
 11 12  1  0
 12 13  2  0
 13 14  1  0
 14 15  1  0
 15 16  2  0
 16 17  1  0
 17 18  1  0
 18 19  1  0
 19 20  2  0
 20 21  1  0
 21 22  1  0
 17 23  2  0
 23 24  1  0
 24 25  2  0
 25 26  1  0
 26 27  2  0
 27 28  1  0
 28 29  2  0
 14 30  2  0
  7 31  1  0
 31  5  1  0
 30 11  1  0
 29 15  1  0
 22 18  2  0
 29 24  1  0
M  END
$$$$
