AVHFYGNBTIJHDJ-OAHLLOKOSA-N
     RDKit          3D

 31 35  0  0  0  0  0  0  0  0999 V2000
   -3.9170  -17.5890   19.7580 C   0  0  0  0  0  0  0  0  0  0  0  0
   -4.0730  -16.9040   18.4070 C   0  0  0  0  0  0  0  0  0  0  0  0
   -3.4230  -15.5100   18.3540 C   0  0  1  0  0  0  0  0  0  0  0  0
   -4.1660  -14.4670   19.1900 C   0  0  0  0  0  0  0  0  0  0  0  0
   -2.0150  -15.5800   18.7520 N   0  0  0  0  0  0  0  0  0  0  0  0
   -1.0050  -16.2660   18.1300 C   0  0  0  0  0  0  0  0  0  0  0  0
    0.1450  -16.0360   18.8610 C   0  0  0  0  0  0  0  0  0  0  0  0
    1.4990  -16.5000   18.6350 C   0  0  0  0  0  0  0  0  0  0  0  0
    1.8480  -17.6090   19.2250 N   0  0  0  0  0  0  0  0  0  0  0  0
    3.1440  -18.0750   19.0680 C   0  0  0  0  0  0  0  0  0  0  0  0
    3.4250  -19.2970   19.7640 C   0  0  0  0  0  0  0  0  0  0  0  0
    2.8080  -19.8490   20.9080 C   0  0  0  0  0  0  0  0  0  0  0  0
    3.3480  -21.0140   21.2750 N   0  0  0  0  0  0  0  0  0  0  0  0
    4.3150  -21.2170   20.3630 N   0  0  0  0  0  0  0  0  0  0  0  0
    5.1500  -22.4130   20.4300 C   0  0  0  0  0  0  0  0  0  0  0  0
    5.1820  -23.0300   21.8420 C   0  0  0  0  0  0  0  0  0  0  0  0
    6.0590  -22.2980   22.8510 C   0  0  0  0  0  0  0  0  0  0  0  0
    7.7310  -22.1410   22.2730 S   0  0  0  0  0  0  0  0  0  0  0  0
    8.4270  -21.2020   23.1300 O   0  0  0  0  0  0  0  0  0  0  0  0
    8.2530  -23.4790   22.0630 O   0  0  0  0  0  0  0  0  0  0  0  0
    7.5120  -21.3900   20.6770 C   0  0  0  0  0  0  0  0  0  0  0  0
    6.5430  -22.1880   19.8120 C   0  0  0  0  0  0  0  0  0  0  0  0
    4.4010  -20.2170   19.4400 C   0  0  0  0  0  0  0  0  0  0  0  0
    4.0530  -17.4200   18.3240 C   0  0  0  0  0  0  0  0  0  0  0  0
    3.6900  -16.2540   17.6770 N   0  0  0  0  0  0  0  0  0  0  0  0
    4.4550  -15.4720   16.8780 N   0  0  0  0  0  0  0  0  0  0  0  0
    3.6260  -14.5210   16.4500 C   0  0  0  0  0  0  0  0  0  0  0  0
    2.3320  -14.6560   16.9770 C   0  0  0  0  0  0  0  0  0  0  0  0
    2.4040  -15.7640   17.7930 C   0  0  0  0  0  0  0  0  0  0  0  0
   -0.2920  -15.1670   19.8910 C   0  0  0  0  0  0  0  0  0  0  0  0
   -1.6000  -14.9040   19.8370 N   0  0  0  0  0  0  0  0  0  0  0  0
  1  2  1  0
  2  3  1  0
  3  4  1  1
  3  5  1  0
  5  6  1  0
  6  7  2  0
  7  8  1  0
  8  9  2  0
  9 10  1  0
 10 11  1  0
 11 12  1  0
 12 13  2  0
 13 14  1  0
 14 15  1  0
 15 16  1  0
 16 17  1  0
 17 18  1  0
 18 19  2  0
 18 20  2  0
 18 21  1  0
 21 22  1  0
 14 23  1  0
 10 24  2  0
 24 25  1  0
 25 26  1  0
 26 27  2  0
 27 28  1  0
 28 29  2  0
  7 30  1  0
 30 31  2  0
 31  5  1  0
 29  8  1  0
 23 11  2  0
 29 25  1  0
 22 15  1  0
M  END
$$$$
