NXCAPWDBSDFCJW-UHFFFAOYSA-N
     RDKit          3D

 43 47  0  0  0  0  0  0  0  0999 V2000
    3.0840    6.9840   -1.7840 C   0  0  0  0  0  0  0  0  0  0  0  0
    2.8530    6.1800   -3.0820 C   0  0  0  0  0  0  0  0  0  0  0  0
    2.0660    7.0490   -4.0860 C   0  0  0  0  0  0  0  0  0  0  0  0
    1.9550    4.9760   -2.7160 C   0  0  0  0  0  0  0  0  0  0  0  0
    4.2050    5.7830   -3.6980 C   0  0  0  0  0  0  0  0  0  0  0  0
    5.3060    5.4980   -2.8660 C   0  0  0  0  0  0  0  0  0  0  0  0
    6.5520    5.1390   -3.3910 C   0  0  0  0  0  0  0  0  0  0  0  0
    6.7290    5.0650   -4.7740 C   0  0  0  0  0  0  0  0  0  0  0  0
    8.0020    4.7150   -5.3140 N   0  0  0  0  0  0  0  0  0  0  0  0
    8.6600    5.3780   -6.3450 C   0  0  0  0  0  0  0  0  0  0  0  0
    8.2960    6.6340   -6.9310 C   0  0  0  0  0  0  0  0  0  0  0  0
    7.2170    7.2050   -6.8770 O   0  0  0  0  0  0  0  0  0  0  0  0
    9.3050    7.1550   -7.6570 O   0  0  0  0  0  0  0  0  0  0  0  0
    9.7640    4.6190   -6.6800 C   0  0  0  0  0  0  0  0  0  0  0  0
   10.6140    4.9930   -7.6650 O   0  0  0  0  0  0  0  0  0  0  0  0
   10.3230    4.7410   -8.9850 C   0  0  0  0  0  0  0  0  0  0  0  0
    9.8870    3.4560   -9.3050 C   0  0  0  0  0  0  0  0  0  0  0  0
    9.5910    3.1310  -10.6270 C   0  0  0  0  0  0  0  0  0  0  0  0
    9.7460    4.0890  -11.6320 C   0  0  0  0  0  0  0  0  0  0  0  0
   10.2020    5.3800  -11.3240 C   0  0  0  0  0  0  0  0  0  0  0  0
   10.4040    6.4120  -12.4060 C   0  0  0  0  0  0  0  0  0  0  0  0
    9.3720    6.4700  -13.2950 F   0  0  0  0  0  0  0  0  0  0  0  0
   10.5370    7.6760  -11.9150 F   0  0  0  0  0  0  0  0  0  0  0  0
   11.5210    6.1780  -13.1470 F   0  0  0  0  0  0  0  0  0  0  0  0
   10.5050    5.6940   -9.9890 C   0  0  0  0  0  0  0  0  0  0  0  0
    9.8770    3.5350   -5.7710 C   0  0  0  0  0  0  0  0  0  0  0  0
   10.8250    2.5060   -5.5810 C   0  0  0  0  0  0  0  0  0  0  0  0
   10.6080    1.5500   -4.5880 C   0  0  0  0  0  0  0  0  0  0  0  0
   11.5180    0.5380   -4.4210 O   0  0  0  0  0  0  0  0  0  0  0  0
   12.7280    0.8350   -3.9390 C   0  0  0  0  0  0  0  0  0  0  0  0
   13.1820    1.4220   -2.7740 C   0  0  0  0  0  0  0  0  0  0  0  0
   14.6090    1.4690   -2.8180 C   0  0  0  0  0  0  0  0  0  0  0  0
   15.5090    2.0220   -1.7630 C   0  0  0  0  0  0  0  0  0  0  0  0
   15.4210    1.3310   -0.5980 F   0  0  0  0  0  0  0  0  0  0  0  0
   16.8120    1.9850   -2.1460 F   0  0  0  0  0  0  0  0  0  0  0  0
   15.2210    3.3170   -1.4740 F   0  0  0  0  0  0  0  0  0  0  0  0
   14.9700    0.9040   -4.0330 C   0  0  0  0  0  0  0  0  0  0  0  0
   13.8300    0.5340   -4.6960 N   0  0  0  0  0  0  0  0  0  0  0  0
    9.4590    1.5700   -3.8110 C   0  0  0  0  0  0  0  0  0  0  0  0
    8.5150    2.5870   -3.9750 C   0  0  0  0  0  0  0  0  0  0  0  0
    8.7560    3.5960   -4.9340 C   0  0  0  0  0  0  0  0  0  0  0  0
    5.6540    5.3380   -5.6200 C   0  0  0  0  0  0  0  0  0  0  0  0
    4.4080    5.6900   -5.0860 C   0  0  0  0  0  0  0  0  0  0  0  0
  1  2  1  0
  2  3  1  0
  2  4  1  0
  2  5  1  0
  5  6  2  0
  6  7  1  0
  7  8  2  0
  8  9  1  0
  9 10  1  0
 10 11  1  0
 11 12  2  0
 11 13  1  0
 10 14  2  0
 14 15  1  0
 15 16  1  0
 16 17  2  0
 17 18  1  0
 18 19  2  0
 19 20  1  0
 20 21  1  0
 21 22  1  0
 21 23  1  0
 21 24  1  0
 20 25  2  0
 14 26  1  0
 26 27  2  0
 27 28  1  0
 28 29  1  0
 29 30  1  0
 30 31  2  0
 31 32  1  0
 32 33  1  0
 33 34  1  0
 33 35  1  0
 33 36  1  0
 32 37  2  0
 37 38  1  0
 28 39  2  0
 39 40  1  0
 40 41  2  0
  8 42  1  0
 42 43  2  0
 43  5  1  0
 41  9  1  0
 25 16  1  0
 41 26  1  0
 38 30  1  0
M  END
$$$$
