BCZXWVFNOOINGV-UHFFFAOYSA-N
     RDKit          3D

 30 31  0  0  0  0  0  0  0  0999 V2000
   40.7210  -39.7670  104.7590 C   0  0  0  0  0  0  0  0  0  0  0  0
   41.4140  -39.8960  106.1070 C   0  0  0  0  0  0  0  0  0  0  0  0
   41.4560  -38.5700  106.8820 C   0  0  1  0  0  0  0  0  0  0  0  0
   41.1590  -38.8030  108.3790 C   0  0  0  0  0  0  0  0  0  0  0  0
   39.7470  -38.4200  108.7640 C   0  0  0  0  0  0  0  0  0  0  0  0
   39.4150  -38.1030  110.0820 C   0  0  0  0  0  0  0  0  0  0  0  0
   38.0850  -37.8480  110.4380 C   0  0  0  0  0  0  0  0  0  0  0  0
   37.0600  -37.9400  109.4890 C   0  0  0  0  0  0  0  0  0  0  0  0
   35.7270  -37.7530  109.7530 O   0  0  0  0  0  0  0  0  0  0  0  0
   35.3700  -36.5950  110.4950 C   0  0  0  0  0  0  0  0  0  0  0  0
   37.3830  -38.2590  108.1590 C   0  0  0  0  0  0  0  0  0  0  0  0
   36.3250  -38.4960  107.1100 C   0  0  0  0  0  0  0  0  0  0  0  0
   36.7230  -37.9430  105.8320 N   0  0  0  0  0  0  0  0  0  0  0  0
   36.5510  -38.6080  104.6410 C   0  0  0  0  0  0  0  0  0  0  0  0
   36.0820  -39.7360  104.5190 O   0  0  0  0  0  0  0  0  0  0  0  0
   36.9220  -37.8310  103.4330 C   0  0  0  0  0  0  0  0  0  0  0  0
   36.0950  -36.8140  102.9470 C   0  0  0  0  0  0  0  0  0  0  0  0
   36.4720  -36.1060  101.8030 C   0  0  0  0  0  0  0  0  0  0  0  0
   37.6650  -36.4090  101.1330 C   0  0  0  0  0  0  0  0  0  0  0  0
   37.8980  -35.6400  100.0290 O   0  0  0  0  0  0  0  0  0  0  0  0
   38.9340  -34.6750  100.1030 C   0  0  0  0  0  0  0  0  0  0  0  0
   40.1130  -35.2880   99.8550 F   0  0  0  0  0  0  0  0  0  0  0  0
   38.7630  -33.7050   99.1810 F   0  0  0  0  0  0  0  0  0  0  0  0
   38.9970  -34.1240  101.3340 F   0  0  0  0  0  0  0  0  0  0  0  0
   38.4920  -37.4180  101.6320 C   0  0  0  0  0  0  0  0  0  0  0  0
   38.1250  -38.1220  102.7840 C   0  0  0  0  0  0  0  0  0  0  0  0
   38.7270  -38.4560  107.8070 C   0  0  0  0  0  0  0  0  0  0  0  0
   42.8220  -37.9280  106.7480 C   0  0  0  0  0  0  0  0  0  0  0  0
   43.8360  -38.4860  106.3610 O   0  0  0  0  0  0  0  0  0  0  0  0
   42.8330  -36.6590  107.1990 O   0  0  0  0  0  0  0  0  0  0  0  0
  1  2  1  0
  3  2  1  6
  3  4  1  0
  4  5  1  0
  5  6  2  0
  6  7  1  0
  7  8  2  0
  8  9  1  0
  9 10  1  0
  8 11  1  0
 11 12  1  0
 12 13  1  0
 13 14  1  0
 14 15  2  0
 14 16  1  0
 16 17  2  0
 17 18  1  0
 18 19  2  0
 19 20  1  0
 20 21  1  0
 21 22  1  0
 21 23  1  0
 21 24  1  0
 19 25  1  0
 25 26  2  0
 11 27  2  0
  3 28  1  0
 28 29  2  0
 28 30  1  0
 27  5  1  0
 26 16  1  0
M  END
$$$$
