LXCYBYBVIQAOJW-UHFFFAOYSA-N
     RDKit          3D

 29 32  0  0  0  0  0  0  0  0999 V2000
  -16.8550  -42.6640   28.9320 C   0  0  0  0  0  0  0  0  0  0  0  0
  -17.0730  -42.5840   27.4630 C   0  0  0  0  0  0  0  0  0  0  0  0
  -18.3290  -42.4460   26.9290 N   0  0  0  0  0  0  0  0  0  0  0  0
  -18.2700  -42.4100   25.5560 C   0  0  0  0  0  0  0  0  0  0  0  0
  -19.2970  -42.2870   24.6130 C   0  0  0  0  0  0  0  0  0  0  0  0
  -18.9380  -42.2750   23.2630 C   0  0  0  0  0  0  0  0  0  0  0  0
  -17.6050  -42.3810   22.8740 C   0  0  0  0  0  0  0  0  0  0  0  0
  -16.5910  -42.5030   23.8310 C   0  0  0  0  0  0  0  0  0  0  0  0
  -16.9260  -42.5170   25.2010 C   0  0  0  0  0  0  0  0  0  0  0  0
  -16.1690  -42.6360   26.4130 C   0  0  0  0  0  0  0  0  0  0  0  0
  -14.6800  -42.7920   26.5170 C   0  0  0  0  0  0  0  0  0  0  0  0
  -14.2120  -44.2400   26.5170 C   0  0  0  0  0  0  0  0  0  0  0  0
  -14.2380  -44.9230   25.4940 O   0  0  0  0  0  0  0  0  0  0  0  0
  -13.8490  -44.7570   27.7450 N   0  0  0  0  0  0  0  0  0  0  0  0
  -13.4040  -46.1230   27.9090 C   0  0  0  0  0  0  0  0  0  0  0  0
  -11.8910  -46.2390   27.7280 C   0  0  0  0  0  0  0  0  0  0  0  0
  -11.1440  -46.5000   29.0490 C   0  0  0  0  0  0  0  0  0  0  0  0
  -11.7820  -45.7650   30.2370 C   0  0  0  0  0  0  0  0  0  0  0  0
  -10.9420  -45.9120   31.5110 C   0  0  0  0  0  0  0  0  0  0  0  0
   -9.5330  -45.5230   31.3580 N   0  0  0  0  0  0  0  0  0  0  0  0
   -9.3420  -44.0670   31.2420 C   0  0  0  0  0  0  0  0  0  0  0  0
   -9.6710  -43.3120   32.5150 C   0  0  0  0  0  0  0  0  0  0  0  0
   -8.6600  -42.9860   33.4320 C   0  0  0  0  0  0  0  0  0  0  0  0
   -8.9590  -42.2790   34.5980 C   0  0  0  0  0  0  0  0  0  0  0  0
  -10.2720  -41.8860   34.8570 C   0  0  0  0  0  0  0  0  0  0  0  0
  -11.2830  -42.2000   33.9510 C   0  0  0  0  0  0  0  0  0  0  0  0
  -10.9860  -42.9080   32.7860 C   0  0  0  0  0  0  0  0  0  0  0  0
   -8.9180  -46.2440   30.2360 C   0  0  0  0  0  0  0  0  0  0  0  0
   -9.6690  -46.0920   28.9110 C   0  0  0  0  0  0  0  0  0  0  0  0
  1  2  1  0
  2  3  1  0
  3  4  1  0
  4  5  2  0
  5  6  1  0
  6  7  2  0
  7  8  1  0
  8  9  2  0
  9 10  1  0
 10 11  1  0
 11 12  1  0
 12 13  2  0
 12 14  1  0
 14 15  1  0
 15 16  1  0
 16 17  1  0
 17 18  1  0
 18 19  1  0
 19 20  1  0
 20 21  1  0
 21 22  1  0
 22 23  2  0
 23 24  1  0
 24 25  2  0
 25 26  1  0
 26 27  2  0
 20 28  1  0
 28 29  1  0
 10  2  2  0
 29 17  1  0
  9  4  1  0
 27 22  1  0
M  END
$$$$
