LXCYBYBVIQAOJW-UHFFFAOYSA-N
     RDKit          3D

 29 32  0  0  0  0  0  0  0  0999 V2000
  -12.9250  -42.7760   32.5640 C   0  0  0  0  0  0  0  0  0  0  0  0
  -11.7540  -43.6390   32.2550 C   0  0  0  0  0  0  0  0  0  0  0  0
  -10.4700  -43.2280   32.5090 N   0  0  0  0  0  0  0  0  0  0  0  0
   -9.5680  -44.1920   32.1250 C   0  0  0  0  0  0  0  0  0  0  0  0
   -8.1700  -44.1960   32.1930 C   0  0  0  0  0  0  0  0  0  0  0  0
   -7.5020  -45.3300   31.7260 C   0  0  0  0  0  0  0  0  0  0  0  0
   -8.2060  -46.4160   31.2120 C   0  0  0  0  0  0  0  0  0  0  0  0
   -9.6040  -46.3960   31.1530 C   0  0  0  0  0  0  0  0  0  0  0  0
  -10.3030  -45.2620   31.6180 C   0  0  0  0  0  0  0  0  0  0  0  0
  -11.6900  -44.9060   31.6940 C   0  0  0  0  0  0  0  0  0  0  0  0
  -12.8480  -45.7480   31.2440 C   0  0  0  0  0  0  0  0  0  0  0  0
  -13.0520  -45.7580   29.7360 C   0  0  0  0  0  0  0  0  0  0  0  0
  -12.4280  -46.5300   29.0090 O   0  0  0  0  0  0  0  0  0  0  0  0
  -13.9040  -44.7930   29.2360 N   0  0  0  0  0  0  0  0  0  0  0  0
  -14.1810  -44.6620   27.8230 C   0  0  0  0  0  0  0  0  0  0  0  0
  -13.3190  -43.5720   27.1870 C   0  0  0  0  0  0  0  0  0  0  0  0
  -13.7310  -43.2440   25.7400 C   0  0  0  0  0  0  0  0  0  0  0  0
  -14.5410  -41.9430   25.6430 C   0  0  0  0  0  0  0  0  0  0  0  0
  -15.0710  -41.7110   24.2230 C   0  0  0  0  0  0  0  0  0  0  0  0
  -15.8350  -42.8370   23.6680 N   0  0  0  0  0  0  0  0  0  0  0  0
  -17.1650  -42.9950   24.2810 C   0  0  0  0  0  0  0  0  0  0  0  0
  -18.1990  -42.0310   23.7350 C   0  0  0  0  0  0  0  0  0  0  0  0
  -17.9940  -41.3870   22.5050 C   0  0  0  0  0  0  0  0  0  0  0  0
  -18.9510  -40.5090   21.9940 C   0  0  0  0  0  0  0  0  0  0  0  0
  -20.1270  -40.2690   22.7050 C   0  0  0  0  0  0  0  0  0  0  0  0
  -20.3440  -40.9070   23.9250 C   0  0  0  0  0  0  0  0  0  0  0  0
  -19.3860  -41.7840   24.4380 C   0  0  0  0  0  0  0  0  0  0  0  0
  -15.0500  -44.0770   23.7400 C   0  0  0  0  0  0  0  0  0  0  0  0
  -14.5380  -44.4080   25.1440 C   0  0  0  0  0  0  0  0  0  0  0  0
  1  2  1  0
  2  3  1  0
  3  4  1  0
  4  5  2  0
  5  6  1  0
  6  7  2  0
  7  8  1  0
  8  9  2  0
  9 10  1  0
 10 11  1  0
 11 12  1  0
 12 13  2  0
 12 14  1  0
 14 15  1  0
 15 16  1  0
 16 17  1  0
 17 18  1  0
 18 19  1  0
 19 20  1  0
 20 21  1  0
 21 22  1  0
 22 23  2  0
 23 24  1  0
 24 25  2  0
 25 26  1  0
 26 27  2  0
 20 28  1  0
 28 29  1  0
 10  2  2  0
 29 17  1  0
  9  4  1  0
 27 22  1  0
M  END
$$$$
