JJHXVSSJRMTBMC-UHFFFAOYSA-N
     RDKit          3D

 32 35  0  0  0  0  0  0  0  0999 V2000
   14.0000    2.4250   30.9150 O   0  0  0  0  0  0  0  0  0  0  0  0
   13.0770    1.8170   30.3930 C   0  0  0  0  0  0  0  0  0  0  0  0
   11.7640    1.9000   30.9970 C   0  0  0  0  0  0  0  0  0  0  0  0
   10.6740    1.9690   31.5020 C   0  0  0  0  0  0  0  0  0  0  0  0
    9.3390    2.0710   32.1150 C   0  0  0  0  0  0  0  0  0  0  0  0
    8.3520    1.0900   31.4600 C   0  0  0  0  0  0  0  0  0  0  0  0
    8.3710   -0.2560   32.0630 N   0  0  0  0  0  0  0  0  0  0  0  0
    6.9890   -0.7780   32.1810 C   0  0  0  0  0  0  0  0  0  0  0  0
    6.9700   -2.2050   32.7520 C   0  0  0  0  0  0  0  0  0  0  0  0
    7.7400   -3.0960   31.9350 O   0  0  0  0  0  0  0  0  0  0  0  0
    9.0950   -2.6360   31.8550 C   0  0  0  0  0  0  0  0  0  0  0  0
    9.1690   -1.2160   31.2680 C   0  0  0  0  0  0  0  0  0  0  0  0
   13.1260    1.0310   29.2750 N   0  0  0  0  0  0  0  0  0  0  0  0
   14.2240    0.7540   28.4660 C   0  0  0  0  0  0  0  0  0  0  0  0
   14.8610    1.6870   27.6630 C   0  0  0  0  0  0  0  0  0  0  0  0
   15.9860    1.3000   26.8900 C   0  0  0  0  0  0  0  0  0  0  0  0
   16.7290    2.1500   26.0460 C   0  0  0  0  0  0  0  0  0  0  0  0
   16.3750    3.5140   25.9450 N   0  0  0  0  0  0  0  0  0  0  0  0
   15.3380    4.1460   25.2350 C   0  0  0  0  0  0  0  0  0  0  0  0
   15.0410    3.7000   23.9340 C   0  0  0  0  0  0  0  0  0  0  0  0
   14.0360    4.3040   23.1740 C   0  0  0  0  0  0  0  0  0  0  0  0
   13.3210    5.3700   23.7070 C   0  0  0  0  0  0  0  0  0  0  0  0
   12.3620    5.9390   22.9610 F   0  0  0  0  0  0  0  0  0  0  0  0
   13.6050    5.8380   24.9850 C   0  0  0  0  0  0  0  0  0  0  0  0
   12.7330    7.1700   25.6430 Cl  0  0  0  0  0  0  0  0  0  0  0  0
   14.6120    5.2320   25.7420 C   0  0  0  0  0  0  0  0  0  0  0  0
   17.7640    1.6930   25.3160 N   0  0  0  0  0  0  0  0  0  0  0  0
   18.0810    0.4020   25.4430 C   0  0  0  0  0  0  0  0  0  0  0  0
   17.4600   -0.4840   26.2240 N   0  0  0  0  0  0  0  0  0  0  0  0
   16.4200   -0.0260   26.9330 C   0  0  0  0  0  0  0  0  0  0  0  0
   15.7020   -0.8700   27.7630 C   0  0  0  0  0  0  0  0  0  0  0  0
   14.6290   -0.5250   28.5250 N   0  0  0  0  0  0  0  0  0  0  0  0
  1  2  2  0
  2  3  1  0
  3  4  3  0
  4  5  1  0
  5  6  1  0
  6  7  1  0
  7  8  1  0
  8  9  1  0
  9 10  1  0
 10 11  1  0
 11 12  1  0
  2 13  1  0
 13 14  1  0
 14 15  2  0
 15 16  1  0
 16 17  2  0
 17 18  1  0
 18 19  1  0
 19 20  2  0
 20 21  1  0
 21 22  2  0
 22 23  1  0
 22 24  1  0
 24 25  1  0
 24 26  2  0
 17 27  1  0
 27 28  2  0
 28 29  1  0
 29 30  2  0
 30 31  1  0
 31 32  2  0
 12  7  1  0
 32 14  1  0
 30 16  1  0
 26 19  1  0
M  END
$$$$
