QLSJFVSWCVEOMO-OAHLLOKOSA-N
     RDKit          3D

 34 36  0  0  0  0  0  0  0  0999 V2000
   -3.7530  -17.0930   19.4190 C   0  0  0  0  0  0  0  0  0  0  0  0
   -3.6130  -16.3290   18.2260 O   0  0  0  0  0  0  0  0  0  0  0  0
   -3.1030  -15.0180   18.4950 C   0  0  0  0  0  0  0  0  0  0  0  0
   -1.5720  -15.0510   18.4170 C   0  0  1  0  0  0  0  0  0  0  0  0
   -1.0760  -14.2820   17.2000 C   0  0  0  0  0  0  0  0  0  0  0  0
   -1.0560  -14.4120   19.6060 O   0  0  0  0  0  0  0  0  0  0  0  0
    0.0580  -14.9750   20.1580 C   0  0  0  0  0  0  0  0  0  0  0  0
    0.9910  -14.3540   20.6460 O   0  0  0  0  0  0  0  0  0  0  0  0
   -0.0780  -16.4810   20.1050 C   0  0  0  0  0  0  0  0  0  0  0  0
    1.2020  -17.2020   19.7840 C   0  0  0  0  0  0  0  0  0  0  0  0
    1.8600  -17.9870   20.7280 C   0  0  0  0  0  0  0  0  0  0  0  0
    3.0420  -18.6420   20.3770 C   0  0  0  0  0  0  0  0  0  0  0  0
    3.5480  -18.5070   19.0890 C   0  0  0  0  0  0  0  0  0  0  0  0
    4.6880  -19.1560   18.6360 N   0  0  0  0  0  0  0  0  0  0  0  0
    5.8200  -19.6490   19.2900 C   0  0  0  0  0  0  0  0  0  0  0  0
    5.8900  -21.0230   19.5360 C   0  0  0  0  0  0  0  0  0  0  0  0
    6.9900  -21.5870   20.1980 C   0  0  0  0  0  0  0  0  0  0  0  0
    7.0930  -22.9750   20.4120 N   0  0  0  0  0  0  0  0  0  0  0  0
    6.6690  -23.8330   21.4500 C   0  0  0  0  0  0  0  0  0  0  0  0
    7.4340  -24.0510   22.6040 C   0  0  0  0  0  0  0  0  0  0  0  0
    7.0060  -24.9360   23.5930 C   0  0  0  0  0  0  0  0  0  0  0  0
    5.8030  -25.6200   23.4400 C   0  0  0  0  0  0  0  0  0  0  0  0
    5.0200  -25.4140   22.3030 C   0  0  0  0  0  0  0  0  0  0  0  0
    5.4430  -24.5230   21.3090 C   0  0  0  0  0  0  0  0  0  0  0  0
    4.7430  -24.2460   20.1570 O   0  0  0  0  0  0  0  0  0  0  0  0
    3.4460  -23.6860   20.3000 C   0  0  0  0  0  0  0  0  0  0  0  0
    8.0150  -20.7190   20.5920 C   0  0  0  0  0  0  0  0  0  0  0  0
    9.2200  -21.2090   21.2930 C   0  0  0  0  0  0  0  0  0  0  0  0
    9.3810  -20.8360   22.5980 N   0  0  0  0  0  0  0  0  0  0  0  0
   10.0540  -21.9050   20.7270 O   0  0  0  0  0  0  0  0  0  0  0  0
    7.8640  -19.3630   20.3420 C   0  0  0  0  0  0  0  0  0  0  0  0
    6.7980  -18.8200   19.7060 N   0  0  0  0  0  0  0  0  0  0  0  0
    2.9190  -17.7470   18.1630 N   0  0  0  0  0  0  0  0  0  0  0  0
    1.7860  -17.1050   18.5280 C   0  0  0  0  0  0  0  0  0  0  0  0
  1  2  1  0
  2  3  1  0
  3  4  1  0
  4  5  1  6
  4  6  1  0
  6  7  1  0
  7  8  2  0
  7  9  1  0
  9 10  1  0
 10 11  2  0
 11 12  1  0
 12 13  2  0
 13 14  1  0
 14 15  1  0
 15 16  2  0
 16 17  1  0
 17 18  1  0
 18 19  1  0
 19 20  2  0
 20 21  1  0
 21 22  2  0
 22 23  1  0
 23 24  2  0
 24 25  1  0
 25 26  1  0
 17 27  2  0
 27 28  1  0
 28 29  1  0
 28 30  2  0
 27 31  1  0
 31 32  2  0
 13 33  1  0
 33 34  2  0
 34 10  1  0
 32 15  1  0
 24 19  1  0
M  END
$$$$
