QLSJFVSWCVEOMO-OAHLLOKOSA-N
     RDKit          3D

 34 36  0  0  0  0  0  0  0  0999 V2000
   -3.6360  -17.1690   18.0650 C   0  0  0  0  0  0  0  0  0  0  0  0
   -3.4270  -17.7720   19.3370 O   0  0  0  0  0  0  0  0  0  0  0  0
   -2.9460  -16.8260   20.2990 C   0  0  0  0  0  0  0  0  0  0  0  0
   -2.0990  -15.7690   19.5800 C   0  0  1  0  0  0  0  0  0  0  0  0
   -2.6710  -14.3750   19.8030 C   0  0  0  0  0  0  0  0  0  0  0  0
   -0.7680  -15.8140   20.1410 O   0  0  0  0  0  0  0  0  0  0  0  0
    0.1560  -16.5370   19.4430 C   0  0  0  0  0  0  0  0  0  0  0  0
   -0.0600  -17.1210   18.3900 O   0  0  0  0  0  0  0  0  0  0  0  0
    1.4850  -16.4550   20.1600 C   0  0  0  0  0  0  0  0  0  0  0  0
    2.2820  -17.7290   20.1240 C   0  0  0  0  0  0  0  0  0  0  0  0
    2.1580  -18.7020   21.1140 C   0  0  0  0  0  0  0  0  0  0  0  0
    2.9150  -19.8720   21.0300 C   0  0  0  0  0  0  0  0  0  0  0  0
    3.7820  -20.0550   19.9600 C   0  0  0  0  0  0  0  0  0  0  0  0
    4.5390  -21.2030   19.7670 N   0  0  0  0  0  0  0  0  0  0  0  0
    5.5570  -21.8020   20.5130 C   0  0  0  0  0  0  0  0  0  0  0  0
    5.1960  -22.7390   21.4850 C   0  0  0  0  0  0  0  0  0  0  0  0
    6.1630  -23.3720   22.2790 C   0  0  0  0  0  0  0  0  0  0  0  0
    5.8150  -24.3500   23.2300 N   0  0  0  0  0  0  0  0  0  0  0  0
    5.7800  -25.7610   23.2070 C   0  0  0  0  0  0  0  0  0  0  0  0
    6.8270  -26.5470   23.7080 C   0  0  0  0  0  0  0  0  0  0  0  0
    6.7790  -27.9380   23.6340 C   0  0  0  0  0  0  0  0  0  0  0  0
    5.6820  -28.5670   23.0520 C   0  0  0  0  0  0  0  0  0  0  0  0
    4.6240  -27.8060   22.5530 C   0  0  0  0  0  0  0  0  0  0  0  0
    4.6630  -26.4080   22.6290 C   0  0  0  0  0  0  0  0  0  0  0  0
    3.6720  -25.5710   22.1720 O   0  0  0  0  0  0  0  0  0  0  0  0
    3.0850  -25.8780   20.9160 C   0  0  0  0  0  0  0  0  0  0  0  0
    7.5020  -23.0310   22.0520 C   0  0  0  0  0  0  0  0  0  0  0  0
    8.6000  -23.6400   22.8310 C   0  0  0  0  0  0  0  0  0  0  0  0
    9.3330  -24.6180   22.2210 N   0  0  0  0  0  0  0  0  0  0  0  0
    8.8340  -23.3000   23.9840 O   0  0  0  0  0  0  0  0  0  0  0  0
    7.7840  -22.0700   21.0930 C   0  0  0  0  0  0  0  0  0  0  0  0
    6.8480  -21.4570   20.3290 N   0  0  0  0  0  0  0  0  0  0  0  0
    3.9130  -19.1180   18.9920 N   0  0  0  0  0  0  0  0  0  0  0  0
    3.1850  -17.9830   19.1010 C   0  0  0  0  0  0  0  0  0  0  0  0
  1  2  1  0
  2  3  1  0
  3  4  1  0
  4  5  1  1
  4  6  1  0
  6  7  1  0
  7  8  2  0
  7  9  1  0
  9 10  1  0
 10 11  2  0
 11 12  1  0
 12 13  2  0
 13 14  1  0
 14 15  1  0
 15 16  2  0
 16 17  1  0
 17 18  1  0
 18 19  1  0
 19 20  2  0
 20 21  1  0
 21 22  2  0
 22 23  1  0
 23 24  2  0
 24 25  1  0
 25 26  1  0
 17 27  2  0
 27 28  1  0
 28 29  1  0
 28 30  2  0
 27 31  1  0
 31 32  2  0
 13 33  1  0
 33 34  2  0
 34 10  1  0
 32 15  1  0
 24 19  1  0
M  END
$$$$
