GHBIFDBGDNHWRO-OWOJBTEDSA-N
     RDKit          3D

 28 32  0  0  0  0  0  0  0  0999 V2000
   -1.6900   23.9180  -27.2310 C   0  0  0  0  0  0  0  0  0  0  0  0
   -2.3660   23.5120  -28.3180 C   0  0  0  0  0  0  0  0  0  0  0  0
   -1.7960   22.5900  -29.3580 C   0  0  0  0  0  0  0  0  0  0  0  0
   -2.8260   21.7880  -30.0130 N   0  0  0  0  0  0  0  0  0  0  0  0
   -2.9090   20.4200  -29.9170 C   0  0  0  0  0  0  0  0  0  0  0  0
   -3.9520   20.0010  -30.7080 C   0  0  0  0  0  0  0  0  0  0  0  0
   -4.5270   21.1510  -31.3100 C   0  0  0  0  0  0  0  0  0  0  0  0
   -5.5960   21.3490  -32.2020 C   0  0  0  0  0  0  0  0  0  0  0  0
   -5.9240   22.6490  -32.6130 C   0  0  0  0  0  0  0  0  0  0  0  0
   -5.2140   23.7710  -32.1570 C   0  0  0  0  0  0  0  0  0  0  0  0
   -4.1450   23.5690  -31.2560 C   0  0  0  0  0  0  0  0  0  0  0  0
   -3.8140   22.2620  -30.8550 C   0  0  0  0  0  0  0  0  0  0  0  0
   -5.5750   25.1370  -32.5840 C   0  0  0  0  0  0  0  0  0  0  0  0
   -6.3800   25.3980  -33.6720 C   0  0  0  0  0  0  0  0  0  0  0  0
   -6.6240   26.7230  -33.9340 C   0  0  0  0  0  0  0  0  0  0  0  0
   -6.1320   27.7310  -33.1930 N   0  0  0  0  0  0  0  0  0  0  0  0
   -5.3560   27.4000  -32.1480 C   0  0  0  0  0  0  0  0  0  0  0  0
   -5.0600   26.1330  -31.8330 N   0  0  0  0  0  0  0  0  0  0  0  0
   -4.8760   28.4730  -31.4010 N   0  0  0  0  0  0  0  0  0  0  0  0
   -4.3400   28.5900  -30.1150 C   0  0  0  0  0  0  0  0  0  0  0  0
   -3.7980   29.8220  -29.7180 C   0  0  0  0  0  0  0  0  0  0  0  0
   -3.2410   29.9970  -28.4480 C   0  0  0  0  0  0  0  0  0  0  0  0
   -3.2180   28.9380  -27.5440 C   0  0  0  0  0  0  0  0  0  0  0  0
   -3.7590   27.7000  -27.9030 C   0  0  0  0  0  0  0  0  0  0  0  0
   -4.3070   27.5420  -29.1880 C   0  0  0  0  0  0  0  0  0  0  0  0
   -3.7300   26.5370  -26.9480 C   0  0  0  0  0  0  0  0  0  0  0  0
   -2.3720   26.1500  -26.7560 O   0  0  0  0  0  0  0  0  0  0  0  0
   -2.2440   24.8470  -26.2020 C   0  0  0  0  0  0  0  0  0  0  0  0
  1  2  2  0
  2  3  1  0
  3  4  1  0
  4  5  1  0
  5  6  2  0
  6  7  1  0
  7  8  2  0
  8  9  1  0
  9 10  2  0
 10 11  1  0
 11 12  2  0
 10 13  1  0
 13 14  2  0
 14 15  1  0
 15 16  2  0
 16 17  1  0
 17 18  2  0
 17 19  1  0
 19 20  1  0
 20 21  2  0
 21 22  1  0
 22 23  2  0
 23 24  1  0
 24 25  2  0
 24 26  1  0
 26 27  1  0
 27 28  1  0
 28  1  1  0
 12  4  1  0
 18 13  1  0
 25 20  1  0
 12  7  1  0
M  END
$$$$
