
 OpenBabel08012610333D

 32 35  0  0  0  0  0  0  0  0999 V2000
   16.2860   36.4540  125.7570 C   0  0  0  0  0  0  0  0  0  0  0  0
   16.7080   37.4900  125.0510 N   0  0  0  0  0  0  0  0  0  0  0  0
   18.0620   37.3270  124.9260 C   0  0  0  0  0  0  0  0  0  0  0  0
   18.9980   38.1470  124.2780 C   0  0  0  0  0  3  0  0  0  0  0  0
   20.3460   37.7690  124.2850 C   0  0  0  0  0  3  0  0  0  0  0  0
   20.7530   36.5980  124.9260 C   0  0  0  0  0  3  0  0  0  0  0  0
   19.8330   35.7670  125.5770 C   0  0  0  0  0  3  0  0  0  0  0  0
   18.4880   36.1600  125.5550 C   0  0  0  0  0  0  0  0  0  0  0  0
   17.3320   35.6140  126.0710 N   0  0  0  0  0  0  0  0  0  0  0  0
   14.7760   36.2610  126.1380 C   0  0  0  0  0  0  0  0  0  0  0  0
   13.6680   36.4860  125.2830 C   0  0  0  0  0  0  0  0  0  0  0  0
   12.5500   36.1890  125.9460 N   0  0  0  0  0  0  0  0  0  0  0  0
   12.9650   35.7960  127.2130 O   0  0  0  0  0  0  0  0  0  0  0  0
   14.3520   35.8340  127.3290 N   0  0  0  0  0  0  0  0  0  0  0  0
   13.7660   36.9340  124.0050 N   0  0  0  0  0  0  0  0  0  0  0  0
   13.5130   36.2870  123.2510 H   0  0  0  0  0  0  0  0  0  0  0  0
   13.7710   38.3490  123.6760 C   0  0  0  0  0  2  0  0  0  0  0  0
   12.7440   38.6720  122.5920 C   0  0  0  0  0  2  0  0  0  0  0  0
   11.1470   40.5870  123.4150 N   0  0  0  0  0  0  0  0  0  0  0  0
   11.8520   39.7430  123.0450 C   0  0  0  0  0  0  0  0  0  0  0  0
   17.2380   34.3500  126.7850 C   0  0  0  0  0  2  0  0  0  0  0  0
   18.1090   33.2710  126.1770 C   0  0  0  0  0  0  0  0  0  0  0  0
   18.2700   33.1540  124.9640 O   0  0  0  0  0  0  0  0  0  0  0  0
   18.7750   32.2960  127.0920 C   0  0  0  0  0  0  0  0  0  0  0  0
   20.0560   31.7900  126.8500 C   0  0  0  0  0  3  0  0  0  0  0  0
   18.0970   31.8990  128.2510 C   0  0  0  0  0  3  0  0  0  0  0  0
   20.6310   30.8790  127.7450 C   0  0  0  0  0  3  0  0  0  0  0  0
   18.6810   30.9910  129.1390 C   0  0  0  0  0  3  0  0  0  0  0  0
   19.9300   30.4330  128.8680 C   0  0  0  0  0  0  0  0  0  0  0  0
   20.5610   29.6210  129.8160 N   0  0  0  0  0  0  0  0  0  0  0  0
   21.2840   29.0190  129.4350 H   0  0  0  0  0  0  0  0  0  0  0  0
   19.9200   29.1150  130.4190 H   0  0  0  0  0  0  0  0  0  0  0  0
  1  9  1  0  0  0  0
  1 10  1  0  0  0  0
  2  1  2  0  0  0  0
  3  2  1  0  0  0  0
  3  8  1  0  0  0  0
  4  5  1  0  0  0  0
  4  3  2  0  0  0  0
  5  6  2  0  0  0  0
  6  7  1  0  0  0  0
  8  7  2  0  0  0  0
  8  9  1  0  0  0  0
  9 21  1  0  0  0  0
 10 14  2  0  0  0  0
 11 12  2  0  0  0  0
 11 10  1  0  0  0  0
 12 13  1  0  0  0  0
 13 14  1  0  0  0  0
 15 11  1  0  0  0  0
 16 15  1  0  0  0  0
 17 15  1  0  0  0  0
 18 20  1  0  0  0  0
 18 17  1  0  0  0  0
 20 19  3  0  0  0  0
 22 21  1  0  0  0  0
 22 24  1  0  0  0  0
 23 22  2  0  0  0  0
 24 26  1  0  0  0  0
 25 24  2  0  0  0  0
 25 27  1  0  0  0  0
 26 28  2  0  0  0  0
 27 29  2  0  0  0  0
 29 28  1  0  0  0  0
 29 30  1  0  0  0  0
 30 32  1  0  0  0  0
 31 30  1  0  0  0  0
M  END
>  <minimizedAffinity>
-8.27910805

>  <CNNscore>
0.637598634

>  <CNNaffinity>
6.83922148

$$$$
