
 OpenBabel08012614513D

 44 45  0  0  1  0  0  0  0  0999 V2000
   15.6310   38.1740  124.9970 C   0  0  0  0  0  0  0  0  0  0  0  0
   15.5320   38.9010  125.9840 O   0  0  0  0  0  0  0  0  0  0  0  0
   14.5390   37.8230  124.2340 N   0  0  0  0  0  0  0  0  0  0  0  0
   14.6090   36.9990  123.6410 H   0  0  0  0  0  0  0  0  0  0  0  0
   16.9650   37.5630  124.5330 C   0  0  2  0  0  3  0  0  0  0  0  0
   16.8390   37.0300  123.1110 C   0  0  0  0  0  1  0  0  0  0  0  0
   17.3500   36.5110  125.4550 N   0  0  0  0  0  0  0  0  0  0  0  0
   16.5190   35.4720  125.7880 C   0  0  0  0  0  0  0  0  0  0  0  0
   15.3790   35.3070  125.3710 O   0  0  0  0  0  0  0  0  0  0  0  0
   18.2880   36.5230  125.8580 H   0  0  0  0  0  0  0  0  0  0  0  0
   17.1320   34.4480  126.7690 C   0  0  0  0  0  0  0  0  0  0  0  0
   16.8470   34.5290  127.9550 O   0  0  0  0  0  0  0  0  0  0  0  0
   17.9580   33.5570  126.1120 N   0  0  0  0  0  0  0  0  0  0  0  0
   18.0010   33.7390  125.1190 H   0  0  0  0  0  0  0  0  0  0  0  0
   18.7060   32.4790  126.6280 C   0  0  0  0  0  0  0  0  0  0  0  0
   18.2710   31.8350  127.8020 C   0  0  0  0  0  3  0  0  0  0  0  0
   19.8930   32.0300  125.9770 C   0  0  0  0  0  0  0  0  0  0  0  0
   18.9680   30.7620  128.3520 C   0  0  0  0  0  3  0  0  0  0  0  0
   20.5690   30.9330  126.5690 C   0  0  0  0  0  3  0  0  0  0  0  0
   20.1170   30.3090  127.7330 C   0  0  0  0  0  3  0  0  0  0  0  0
   20.4890   32.6610  124.6840 C   0  0  0  0  0  0  0  0  0  0  0  0
   19.6870   32.2260  123.4350 C   0  0  0  0  0  1  0  0  0  0  0  0
   20.5580   34.2010  124.8020 C   0  0  0  0  0  1  0  0  0  0  0  0
   21.9540   32.2240  124.3870 C   0  0  0  0  0  1  0  0  0  0  0  0
   13.1890   38.2070  124.6370 C   0  0  1  0  0  3  0  0  0  0  0  0
   13.0370   38.2450  126.1550 C   0  0  0  0  0  2  0  0  0  0  0  0
   12.7370   36.9060  126.7690 C   0  0  0  0  0  0  0  0  0  0  0  0
   12.1540   35.9830  126.2230 O   0  0  0  0  0  0  0  0  0  0  0  0
   13.2410   36.7620  128.0120 O   0  0  0  0  0  0  0  0  0  0  0  0
   12.9490   35.8580  128.2710 H   0  0  0  0  0  0  0  0  0  0  0  0
   12.8590   39.5680  124.0090 C   0  0  0  0  0  0  0  0  0  0  0  0
   13.5510   40.0410  123.1030 O   0  0  0  0  0  0  0  0  0  0  0  0
   11.6200   40.2770  124.5610 C   0  0  0  0  0  2  0  0  0  0  0  0
   10.7060   40.7600  123.5880 O   0  0  0  0  0  0  0  0  0  0  0  0
    9.9610   41.8730  123.8740 C   0  0  0  0  0  0  0  0  0  0  0  0
    8.5880   41.9230  124.1170 C   0  0  0  0  0  0  0  0  0  0  0  0
   10.6760   43.0770  123.9120 C   0  0  0  0  0  0  0  0  0  0  0  0
    7.9560   43.1370  124.3980 C   0  0  0  0  0  0  0  0  0  0  0  0
   10.0370   44.2840  124.1970 C   0  0  0  0  0  0  0  0  0  0  0  0
    8.6730   44.3240  124.4440 C   0  0  0  0  0  3  0  0  0  0  0  0
    7.8340   40.8140  124.0760 F   0  0  0  0  0  0  0  0  0  0  0  0
   11.9960   43.0800  123.6710 F   0  0  0  0  0  0  0  0  0  0  0  0
    6.6350   43.1620  124.6180 F   0  0  0  0  0  0  0  0  0  0  0  0
   10.7430   45.4230  124.2340 F   0  0  0  0  0  0  0  0  0  0  0  0
  1  2  2  0  0  0  0
  3 25  1  0  0  0  0
  3  1  1  0  0  0  0
  4  3  1  0  0  0  0
  5  6  1  6  0  0  0
  5  1  1  0  0  0  0
  5  7  1  0  0  0  0
  7  8  1  0  0  0  0
  7 10  1  0  0  0  0
  8 11  1  0  0  0  0
  9  8  2  0  0  0  0
 11 12  2  0  0  0  0
 13 15  1  0  0  0  0
 13 11  1  0  0  0  0
 14 13  1  0  0  0  0
 15 16  1  0  0  0  0
 16 18  2  0  0  0  0
 17 19  1  0  0  0  0
 17 15  2  0  0  0  0
 19 20  2  0  0  0  0
 20 18  1  0  0  0  0
 21 23  1  0  0  0  0
 21 17  1  0  0  0  0
 22 21  1  0  0  0  0
 24 21  1  0  0  0  0
 25 26  1  1  0  0  0
 26 27  1  0  0  0  0
 27 29  1  0  0  0  0
 28 27  2  0  0  0  0
 29 30  1  0  0  0  0
 31 33  1  0  0  0  0
 31 25  1  0  0  0  0
 32 31  2  0  0  0  0
 34 35  1  0  0  0  0
 34 33  1  0  0  0  0
 35 37  2  0  0  0  0
 35 36  1  0  0  0  0
 36 38  2  0  0  0  0
 37 39  1  0  0  0  0
 38 40  1  0  0  0  0
 38 43  1  0  0  0  0
 39 44  1  0  0  0  0
 39 40  2  0  0  0  0
 41 36  1  0  0  0  0
 42 37  1  0  0  0  0
M  END
>  <minimizedAffinity>
-9.55487633

>  <CNNscore>
0.567803741

>  <CNNaffinity>
6.14369202

$$$$
