
 OpenBabel08012617143D

 37 38  0  0  1  0  0  0  0  0999 V2000
   13.4640   37.1660  126.2860 S   0  0  0  0  0  0  0  0  0  0  0  0
   12.8390   38.4270  126.6210 O   0  0  0  0  0  0  0  0  0  0  0  0
   13.2510   35.9820  127.0880 O   0  0  0  0  0  0  0  0  0  0  0  0
   13.1110   36.7780  124.5770 C   0  0  0  0  0  2  0  0  0  0  0  0
   12.4420   37.9670  123.8980 C   0  0  0  0  0  2  0  0  0  0  0  0
   12.2280   37.6760  122.4760 N   0  0  0  0  0  0  0  0  0  0  0  0
   11.2310   37.6000  122.2670 H   0  0  0  0  0  0  0  0  0  0  0  0
   12.8450   38.6750  121.6030 C   0  0  0  0  0  2  0  0  0  0  0  0
   12.4940   40.1010  122.0010 C   0  0  0  0  0  1  0  0  0  0  0  0
   15.1310   37.4280  126.2550 N   0  0  0  0  0  0  0  0  0  0  0  0
   15.5810   36.6890  126.8320 H   0  0  0  0  0  0  0  0  0  0  0  0
   15.6160   38.7970  126.6040 C   0  0  0  0  0  2  0  0  0  0  0  0
   16.6230   39.4210  125.5750 C   0  0  1  0  0  0  0  0  0  0  0  0
   15.5860   39.7740  124.0450 S   0  0  0  0  0  0  0  0  0  0  0  0
   17.0530   40.7770  126.0070 N   0  0  0  0  0  0  0  0  0  0  0  0
   16.0060   41.4440  124.1810 C   0  0  0  0  0  0  0  0  0  0  0  0
   16.7100   41.8290  125.1850 N   0  0  0  0  0  0  0  0  0  0  0  0
   15.5260   42.2000  123.1540 N   0  0  0  0  0  0  0  0  0  0  0  0
   15.7560   43.5520  122.9510 C   0  0  0  0  0  0  0  0  0  0  0  0
   16.3630   44.2710  123.7370 O   0  0  0  0  0  0  0  0  0  0  0  0
   15.0160   41.6840  122.4570 H   0  0  0  0  0  0  0  0  0  0  0  0
   17.7960   38.5430  125.1030 C   0  0  0  0  0  0  0  0  0  0  0  0
   19.0680   39.0760  124.8270 C   0  0  0  0  0  3  0  0  0  0  0  0
   17.6380   37.1440  124.9790 C   0  0  0  0  0  3  0  0  0  0  0  0
   20.1230   38.2570  124.4120 C   0  0  0  0  0  3  0  0  0  0  0  0
   18.6950   36.3240  124.5810 C   0  0  0  0  0  3  0  0  0  0  0  0
   19.9370   36.8830  124.2880 C   0  0  0  0  0  3  0  0  0  0  0  0
   17.8070   40.9780  127.1570 C   0  0  0  0  0  0  0  0  0  0  0  0
   17.3080   40.7580  128.2690 O   0  0  0  0  0  0  0  0  0  0  0  0
   19.2690   41.4860  127.0360 C   0  0  0  0  0  0  0  0  0  0  0  0
   19.5600   42.6160  128.0370 C   0  0  0  0  0  1  0  0  0  0  0  0
   19.4640   42.0690  125.6170 C   0  0  0  0  0  1  0  0  0  0  0  0
   20.2670   40.3300  127.1980 C   0  0  0  0  0  1  0  0  0  0  0  0
   15.1740   44.0960  121.6270 C   0  0  0  0  0  0  0  0  0  0  0  0
   15.5060   43.1200  120.4840 C   0  0  0  0  0  1  0  0  0  0  0  0
   15.7940   45.4600  121.2970 C   0  0  0  0  0  1  0  0  0  0  0  0
   13.6480   44.2220  121.7370 C   0  0  0  0  0  1  0  0  0  0  0  0
  1  2  2  0  0  0  0
  1  3  2  0  0  0  0
  4  1  1  0  0  0  0
  5  4  1  0  0  0  0
  6  5  1  0  0  0  0
  7  6  1  0  0  0  0
  8  9  1  0  0  0  0
  8  6  1  0  0  0  0
 10  1  1  0  0  0  0
 10 12  1  0  0  0  0
 10 11  1  0  0  0  0
 13 15  1  0  0  0  0
 13 12  1  1  0  0  0
 14 16  1  0  0  0  0
 14 13  1  0  0  0  0
 15 28  1  0  0  0  0
 16 17  2  0  0  0  0
 17 15  1  0  0  0  0
 18 16  1  0  0  0  0
 19 18  1  0  0  0  0
 19 20  2  0  0  0  0
 21 18  1  0  0  0  0
 22 13  1  0  0  0  0
 23 22  2  0  0  0  0
 24 22  1  0  0  0  0
 25 23  1  0  0  0  0
 26 24  2  0  0  0  0
 27 25  2  0  0  0  0
 27 26  1  0  0  0  0
 28 29  2  0  0  0  0
 30 28  1  0  0  0  0
 30 33  1  0  0  0  0
 30 31  1  0  0  0  0
 32 30  1  0  0  0  0
 34 37  1  0  0  0  0
 34 19  1  0  0  0  0
 35 34  1  0  0  0  0
 36 34  1  0  0  0  0
M  END
>  <minimizedAffinity>
-6.6140027

>  <CNNscore>
0.336261898

>  <CNNaffinity>
5.81870794

$$$$
