
 OpenBabel08012615283D

 35 39  0  0  1  0  0  0  0  0999 V2000
   17.7200   36.8390  124.3760 C   0  0  0  0  0  0  0  0  0  0  0  0
   16.5060   37.0870  123.8570 C   0  0  0  0  0  3  0  0  0  0  0  0
   15.8750   38.4440  124.0820 C   0  0  0  0  0  0  0  0  0  0  0  0
   14.6110   38.6200  123.5560 N   0  0  0  0  0  0  0  0  0  0  0  0
   16.4980   39.3820  124.7450 N   0  0  0  0  0  0  0  0  0  0  0  0
   17.7580   39.1410  125.2130 C   0  0  0  0  0  0  0  0  0  0  0  0
   18.6710   39.9340  125.8810 C   0  0  0  0  0  0  0  0  0  0  0  0
   19.7290   39.0650  126.2070 C   0  0  0  0  0  3  0  0  0  0  0  0
   19.5620   37.8290  125.7350 N   0  0  0  0  0  0  0  0  0  0  0  0
   18.3560   37.8870  125.0860 N   0  0  0  0  0  0  0  0  0  0  0  0
   14.1930   37.8500  123.0440 H   0  0  0  0  0  0  0  0  0  0  0  0
   18.4140   35.6360  124.2660 N   0  0  0  0  0  0  0  0  0  0  0  0
   19.8290   35.4160  124.4140 C   0  0  0  0  0  1  0  0  0  0  0  0
   17.8830   34.9230  123.7570 H   0  0  0  0  0  0  0  0  0  0  0  0
   13.7630   39.7510  123.5430 C   0  0  0  0  0  0  0  0  0  0  0  0
   12.4850   39.7960  124.1070 C   0  0  0  0  0  3  0  0  0  0  0  0
   14.2430   40.9230  122.9130 C   0  0  0  0  0  0  0  0  0  0  0  0
   11.7220   40.9610  124.0440 C   0  0  0  0  0  0  0  0  0  0  0  0
   13.4550   42.0810  122.8320 C   0  0  0  0  0  0  0  0  0  0  0  0
   15.5210   40.8580  122.3850 O   0  0  0  0  0  0  0  0  0  0  0  0
   12.1940   42.1030  123.4140 C   0  0  0  0  0  3  0  0  0  0  0  0
   13.8630   43.2330  122.2090 O   0  0  0  0  0  0  0  0  0  0  0  0
   16.0380   42.1660  122.1150 C   0  0  0  0  0  2  0  0  0  0  0  0
   15.0080   43.0050  121.3790 C   0  0  0  0  0  2  0  0  0  0  0  0
   10.5010   40.9750  124.5960 F   0  0  0  0  0  0  0  0  0  0  0  0
   18.5570   41.2680  126.2390 N   0  0  0  0  0  0  0  0  0  0  0  0
   17.3980   42.0090  126.1030 C   0  0  0  0  0  0  0  0  0  0  0  0
   16.4320   41.7340  125.4030 O   0  0  0  0  0  0  0  0  0  0  0  0
   17.4850   43.1820  126.8360 N   0  0  0  0  0  0  0  0  0  0  0  0
   19.4070   41.8110  126.2710 H   0  0  0  0  0  0  0  0  0  0  0  0
   18.0680   43.1120  127.6630 H   0  0  0  0  0  0  0  0  0  0  0  0
   16.3590   44.0690  126.9610 C   0  0  2  0  0  3  0  0  0  0  0  0
   15.3790   44.2180  125.8260 C   0  0  0  0  0  2  0  0  0  0  0  0
   16.3100   45.3370  126.1570 C   0  0  2  0  0  3  0  0  0  0  0  0
   17.3570   45.5730  125.2810 F   0  0  0  0  0  0  0  0  0  0  0  0
  1 10  1  0  0  0  0
  2  3  1  0  0  0  0
  2  1  2  0  0  0  0
  3  5  2  0  0  0  0
  4  3  1  0  0  0  0
  5  6  1  0  0  0  0
  6  7  2  0  0  0  0
  7  8  1  0  0  0  0
  7 26  1  0  0  0  0
  9  8  2  0  0  0  0
 10  6  1  0  0  0  0
 10  9  1  0  0  0  0
 11  4  1  0  0  0  0
 12  1  1  0  0  0  0
 12 13  1  0  0  0  0
 14 12  1  0  0  0  0
 15  4  1  0  0  0  0
 15 16  1  0  0  0  0
 17 15  2  0  0  0  0
 18 16  2  0  0  0  0
 18 25  1  0  0  0  0
 19 17  1  0  0  0  0
 19 21  2  0  0  0  0
 20 17  1  0  0  0  0
 21 18  1  0  0  0  0
 22 19  1  0  0  0  0
 23 20  1  0  0  0  0
 24 23  1  0  0  0  0
 24 22  1  0  0  0  0
 26 30  1  0  0  0  0
 27 26  1  0  0  0  0
 27 29  1  0  0  0  0
 28 27  2  0  0  0  0
 29 31  1  0  0  0  0
 32 29  1  6  0  0  0
 33 34  1  0  0  0  0
 33 32  1  0  0  0  0
 34 35  1  6  0  0  0
 34 32  1  0  0  0  0
M  END
>  <minimizedAffinity>
-7.54759979

>  <CNNscore>
0.0735066161

>  <CNNaffinity>
4.72771311

$$$$
