
 OpenBabel08012610563D

 22 24  0  0  0  0  0  0  0  0999 V2000
   16.3140   36.9800  125.3040 C   0  0  0  0  0  0  0  0  0  0  0  0
   16.2580   35.7360  125.9720 C   0  0  0  0  0  3  0  0  0  0  0  0
   17.3720   34.9100  126.1070 C   0  0  0  0  0  0  0  0  0  0  0  0
   17.2510   33.7380  126.7450 F   0  0  0  0  0  0  0  0  0  0  0  0
   18.5900   35.2700  125.5670 C   0  0  0  0  0  3  0  0  0  0  0  0
   18.6890   36.4830  124.8940 C   0  0  0  0  0  3  0  0  0  0  0  0
   17.5740   37.3500  124.7800 C   0  0  0  0  0  0  0  0  0  0  0  0
   15.1310   37.6850  125.1480 N   0  0  0  0  0  0  0  0  0  0  0  0
   12.6810   39.1260  124.4710 N   0  0  0  0  0  0  0  0  0  0  0  0
   12.9330   37.7440  124.0070 C   0  0  0  0  0  2  0  0  0  0  0  0
   13.9730   39.8200  124.6990 C   0  0  0  0  0  2  0  0  0  0  0  0
   13.8630   36.9480  124.9550 C   0  0  0  0  0  2  0  0  0  0  0  0
   14.9020   39.0520  125.6830 C   0  0  0  0  0  2  0  0  0  0  0  0
   11.8640   39.8560  123.5050 C   0  0  0  0  0  1  0  0  0  0  0  0
   17.8300   38.6390  124.0560 C   0  0  0  0  0  0  0  0  0  0  0  0
   17.3890   38.9270  122.8750 N   0  0  0  0  0  0  0  0  0  0  0  0
   18.6660   39.6660  124.6810 C   0  0  0  0  0  0  0  0  0  0  0  0
   18.7850   40.9940  124.3070 C   0  0  0  0  0  3  0  0  0  0  0  0
   19.5690   39.3500  126.1080 S   0  0  0  0  0  0  0  0  0  0  0  0
   19.6600   41.7300  125.1540 C   0  0  0  0  0  3  0  0  0  0  0  0
   20.1620   40.9520  126.1720 C   0  0  0  0  0  3  0  0  0  0  0  0
   16.4100   38.0270  122.2650 C   0  0  0  0  0  1  0  0  0  0  0  0
  1  2  1  0  0  0  0
  2  3  2  0  0  0  0
  3  4  1  0  0  0  0
  5  3  1  0  0  0  0
  6  5  2  0  0  0  0
  7  6  1  0  0  0  0
  7  1  2  0  0  0  0
  8  1  1  0  0  0  0
  8 13  1  0  0  0  0
  9 11  1  0  0  0  0
 10  9  1  0  0  0  0
 10 12  1  0  0  0  0
 11 13  1  0  0  0  0
 12  8  1  0  0  0  0
 14  9  1  0  0  0  0
 15 17  1  0  0  0  0
 15  7  1  0  0  0  0
 16 15  2  0  0  0  0
 17 19  1  0  0  0  0
 18 17  2  0  0  0  0
 18 20  1  0  0  0  0
 19 21  1  0  0  0  0
 20 21  2  0  0  0  0
 22 16  1  0  0  0  0
M  END
>  <minimizedAffinity>
-6.58896828

>  <CNNscore>
0.198473081

>  <CNNaffinity>
4.90459681

$$$$
