
 OpenBabel08012606113D

 32 35  0  0  1  0  0  0  0  0999 V2000
   18.5740   35.3600  125.4080 C   0  0  0  0  0  0  0  0  0  0  0  0
   19.2860   35.9850  126.1860 O   0  0  0  0  0  0  0  0  0  0  0  0
   17.7080   35.9120  124.4920 N   0  0  0  0  0  0  0  0  0  0  0  0
   17.1960   35.3080  123.8620 H   0  0  0  0  0  0  0  0  0  0  0  0
   18.5550   33.8290  125.3810 C   0  0  2  0  0  3  0  0  0  0  0  0
   18.1510   31.9420  127.1070 C   0  0  2  0  0  3  0  0  0  0  0  0
   18.7820   31.0780  126.0130 C   0  0  0  0  0  2  0  0  0  0  0  0
   17.6960   33.2970  126.5450 C   0  0  0  0  0  2  0  0  0  0  0  0
   20.0010   31.7340  125.3600 C   0  0  0  0  0  2  0  0  0  0  0  0
   19.9770   33.2610  125.3990 C   0  0  0  0  0  2  0  0  0  0  0  0
   19.0550   32.1200  128.2370 N   0  0  0  0  0  0  0  0  0  0  0  0
   19.3560   31.0830  129.0920 C   0  0  0  0  0  0  0  0  0  0  0  0
   18.8280   29.9770  129.0400 O   0  0  0  0  0  0  0  0  0  0  0  0
   20.3760   31.4390  130.1400 C   0  0  0  0  0  1  0  0  0  0  0  0
   19.6280   32.9530  128.2780 H   0  0  0  0  0  0  0  0  0  0  0  0
   17.4380   37.2600  124.2560 C   0  0  0  0  0  0  0  0  0  0  0  0
   17.6840   38.2830  125.1600 C   0  0  0  0  0  3  0  0  0  0  0  0
   16.8940   37.4840  123.0420 N   0  0  0  0  0  0  0  0  0  0  0  0
   17.3560   39.6020  124.8100 C   0  0  0  0  0  0  0  0  0  0  0  0
   16.5950   38.7660  122.7190 C   0  0  0  0  0  3  0  0  0  0  0  0
   16.8040   39.8530  123.5540 C   0  0  0  0  0  0  0  0  0  0  0  0
   16.3980   41.4270  122.9820 Cl  0  0  0  0  0  0  0  0  0  0  0  0
   17.6150   40.6480  125.7740 C   0  0  0  0  0  0  0  0  0  0  0  0
   16.7710   41.6800  126.2830 C   0  0  0  0  0  3  0  0  0  0  0  0
   18.8260   40.9120  126.3570 C   0  0  0  0  0  0  0  0  0  0  0  0
   17.4030   42.5010  127.1400 N   0  0  0  0  0  0  0  0  0  0  0  0
   18.6280   41.9860  127.1550 N   0  0  0  0  0  0  0  0  0  0  0  0
   20.2320   40.4680  126.4180 C   0  0  0  0  0  2  0  0  0  0  0  0
   19.8000   42.4460  127.8710 C   0  0  0  0  0  2  0  0  0  0  0  0
   20.7820   41.2500  127.6700 C   0  0  0  0  0  0  0  0  0  0  0  0
   22.2090   41.7450  127.4290 C   0  0  0  0  0  1  0  0  0  0  0  0
   20.7590   40.3380  128.9090 C   0  0  0  0  0  1  0  0  0  0  0  0
  1  2  2  0  0  0  0
  3  1  1  0  0  0  0
  4  3  1  0  0  0  0
  5 10  1  0  0  0  0
  5  1  1  1  0  0  0
  5  8  1  0  0  0  0
  6 11  1  1  0  0  0
  7  6  1  0  0  0  0
  8  6  1  0  0  0  0
  9 10  1  0  0  0  0
  9  7  1  0  0  0  0
 11 15  1  0  0  0  0
 11 12  1  0  0  0  0
 12 14  1  0  0  0  0
 13 12  2  0  0  0  0
 16  3  1  0  0  0  0
 16 17  1  0  0  0  0
 18 16  2  0  0  0  0
 19 17  2  0  0  0  0
 19 23  1  0  0  0  0
 20 18  1  0  0  0  0
 20 21  2  0  0  0  0
 21 19  1  0  0  0  0
 22 21  1  0  0  0  0
 23 24  1  0  0  0  0
 23 25  2  0  0  0  0
 24 26  2  0  0  0  0
 25 28  1  0  0  0  0
 25 27  1  0  0  0  0
 26 27  1  0  0  0  0
 27 29  1  0  0  0  0
 28 30  1  0  0  0  0
 30 29  1  0  0  0  0
 30 32  1  0  0  0  0
 31 30  1  0  0  0  0
M  END
>  <minimizedAffinity>
-8.07238388

>  <CNNscore>
0.408205241

>  <CNNaffinity>
7.07746506

$$$$
