
 OpenBabel08012608443D

 33 35  0  0  0  0  0  0  0  0999 V2000
   18.9030   36.5240  124.5010 C   0  0  0  0  0  0  0  0  0  0  0  0
   19.8840   37.4880  124.7000 C   0  0  0  0  0  3  0  0  0  0  0  0
   19.6100   38.8270  124.4170 C   0  0  0  0  0  3  0  0  0  0  0  0
   18.3500   39.2260  123.9450 C   0  0  0  0  0  0  0  0  0  0  0  0
   18.1750   40.9250  123.6840 Cl  0  0  0  0  0  0  0  0  0  0  0  0
   17.3450   38.2700  123.7610 C   0  0  0  0  0  0  0  0  0  0  0  0
   17.6390   36.9160  124.0150 C   0  0  0  0  0  0  0  0  0  0  0  0
   19.0840   35.1470  124.7470 N   0  0  0  0  0  0  0  0  0  0  0  0
   18.5610   34.9580  126.9880 O   0  0  0  0  0  0  0  0  0  0  0  0
   18.9060   34.4520  125.9290 C   0  0  0  0  0  0  0  0  0  0  0  0
   19.1830   33.1090  125.7470 N   0  0  0  0  0  0  0  0  0  0  0  0
   19.4230   34.6410  123.9370 H   0  0  0  0  0  0  0  0  0  0  0  0
   19.3940   32.8100  124.8040 H   0  0  0  0  0  0  0  0  0  0  0  0
   19.1740   32.0690  126.7100 C   0  0  0  0  0  0  0  0  0  0  0  0
   18.1890   31.9430  127.6970 C   0  0  0  0  0  3  0  0  0  0  0  0
   20.2170   31.1230  126.6790 C   0  0  0  0  0  0  0  0  0  0  0  0
   18.2380   30.9000  128.6320 C   0  0  0  0  0  3  0  0  0  0  0  0
   20.2580   30.0890  127.6170 C   0  0  0  0  0  0  0  0  0  0  0  0
   19.2760   29.9730  128.5920 C   0  0  0  0  0  3  0  0  0  0  0  0
   21.4670   31.2220  125.4830 Cl  0  0  0  0  0  0  0  0  0  0  0  0
   21.2490   29.1840  127.5960 F   0  0  0  0  0  0  0  0  0  0  0  0
   16.7510   35.8770  123.8230 O   0  0  0  0  0  0  0  0  0  0  0  0
   15.9830   36.1790  123.2860 H   0  0  0  0  0  0  0  0  0  0  0  0
   15.7340   38.6930  123.1670 S   0  0  0  0  0  0  0  0  0  0  0  0
   15.5720   38.3480  121.7740 O   0  0  0  0  0  0  0  0  0  0  0  0
   14.7990   38.1660  124.1490 O   0  0  0  0  0  0  0  0  0  0  0  0
   15.6630   40.3940  123.3150 N   0  0  0  0  0  0  0  0  0  0  0  0
   14.9930   41.1190  122.1870 C   0  0  0  0  0  2  0  0  0  0  0  0
   15.0680   40.8210  124.6300 C   0  0  0  0  0  2  0  0  0  0  0  0
   15.0550   42.6430  122.4100 C   0  0  0  0  0  2  0  0  0  0  0  0
   15.1250   42.3520  124.7860 C   0  0  0  0  0  2  0  0  0  0  0  0
   14.4610   43.0750  123.6870 N   0  0  0  0  0  0  0  0  0  0  0  0
   13.4710   42.8290  123.6850 H   0  0  0  0  0  0  0  0  0  0  0  0
  1  2  1  0  0  0  0
  1  8  1  0  0  0  0
  3  2  2  0  0  0  0
  4  3  1  0  0  0  0
  5  4  1  0  0  0  0
  6  4  2  0  0  0  0
  6  7  1  0  0  0  0
  7  1  2  0  0  0  0
  8 10  1  0  0  0  0
 10  9  2  0  0  0  0
 11 10  1  0  0  0  0
 11 14  1  0  0  0  0
 12  8  1  0  0  0  0
 13 11  1  0  0  0  0
 14 15  1  0  0  0  0
 15 17  2  0  0  0  0
 16 14  2  0  0  0  0
 16 18  1  0  0  0  0
 18 19  2  0  0  0  0
 19 17  1  0  0  0  0
 20 16  1  0  0  0  0
 21 18  1  0  0  0  0
 22  7  1  0  0  0  0
 23 22  1  0  0  0  0
 24 27  1  0  0  0  0
 24  6  1  0  0  0  0
 24 26  2  0  0  0  0
 25 24  2  0  0  0  0
 27 29  1  0  0  0  0
 28 30  1  0  0  0  0
 28 27  1  0  0  0  0
 29 31  1  0  0  0  0
 30 32  1  0  0  0  0
 32 31  1  0  0  0  0
 33 32  1  0  0  0  0
M  END
>  <minimizedAffinity>
-8.63544464

>  <CNNscore>
0.586149573

>  <CNNaffinity>
6.7638917

$$$$
