
 OpenBabel08012611473D

 34 34  0  0  1  0  0  0  0  0999 V2000
   17.2600   35.8320  124.8930 C   0  0  1  0  0  3  0  0  0  0  0  0
   16.0740   36.7230  125.3040 C   0  0  0  0  0  2  0  0  0  0  0  0
   14.6830   36.4730  124.6790 C   0  0  2  0  0  3  0  0  0  0  0  0
   14.0270   37.6600  123.8950 C   0  0  2  0  0  0  0  0  0  0  0  0
   12.4970   37.5330  123.8710 C   0  0  0  0  0  1  0  0  0  0  0  0
   14.4650   37.6490  122.5250 O   0  0  0  0  0  0  0  0  0  0  0  0
   14.1970   38.5040  122.1390 H   0  0  0  0  0  0  0  0  0  0  0  0
   14.5180   38.9810  124.4650 C   0  0  0  0  0  3  0  0  0  0  0  0
   15.0380   40.0340  123.8070 C   0  0  0  0  0  3  0  0  0  0  0  0
   15.4420   41.3210  124.4780 C   0  0  1  0  0  3  0  0  0  0  0  0
   16.6440   41.1120  125.4020 C   0  0  0  0  0  2  0  0  0  0  0  0
   15.7500   42.2600  123.4300 O   0  0  0  0  0  0  0  0  0  0  0  0
   17.1740   42.4420  125.8300 C   0  0  0  0  0  3  0  0  0  0  0  0
   16.2750   43.4610  123.7760 C   0  0  0  0  0  0  0  0  0  0  0  0
   16.9630   43.5340  125.0820 C   0  0  0  0  0  3  0  0  0  0  0  0
   16.2390   44.4390  123.0390 O   0  0  0  0  0  0  0  0  0  0  0  0
   13.8010   36.0320  125.7150 O   0  0  0  0  0  0  0  0  0  0  0  0
   13.9990   36.6310  127.1820 P   0  0  0  0  0  0  0  0  0  0  0  0
   14.6510   37.9630  127.2950 O   0  0  0  0  0  0  0  0  0  0  0  0
   14.7270   35.4600  127.9840 O   0  0  0  0  0  0  0  0  0  0  0  0
   14.9560   35.7440  128.8870 H   0  0  0  0  0  0  0  0  0  0  0  0
   12.5240   36.5790  127.7880 O   0  0  0  0  0  0  0  0  0  0  0  0
   11.9860   37.3060  127.4220 H   0  0  0  0  0  0  0  0  0  0  0  0
   17.3160   35.6790  123.4790 O   0  0  0  0  0  0  0  0  0  0  0  0
   17.5040   36.5670  123.1130 H   0  0  0  0  0  0  0  0  0  0  0  0
   18.6120   36.2720  125.3770 C   0  0  0  0  0  3  0  0  0  0  0  0
   19.7970   35.6610  125.2140 C   0  0  0  0  0  3  0  0  0  0  0  0
   20.0130   34.3900  124.5550 C   0  0  0  0  0  3  0  0  0  0  0  0
   19.8270   33.1640  125.0710 C   0  0  0  0  0  3  0  0  0  0  0  0
   19.3810   32.8250  126.4040 C   0  0  0  0  0  3  0  0  0  0  0  0
   19.8310   31.7430  127.0620 C   0  0  0  0  0  3  0  0  0  0  0  0
   19.4010   31.3650  128.4400 C   0  0  0  0  0  2  0  0  0  0  0  0
   19.2190   29.9580  128.4810 O   0  0  0  0  0  0  0  0  0  0  0  0
   20.0460   29.5580  128.1620 H   0  0  0  0  0  0  0  0  0  0  0  0
  1  2  1  6  0  0  0
  1 26  1  0  0  0  0
  3  2  1  1  0  0  0
  3 17  1  0  0  0  0
  4  5  1  1  0  0  0
  4  8  1  0  0  0  0
  4  3  1  0  0  0  0
  6  4  1  0  0  0  0
  7  6  1  0  0  0  0
  9  8  2  0  0  0  0
 10  9  1  6  0  0  0
 10 11  1  0  0  0  0
 11 13  1  0  0  0  0
 12 14  1  0  0  0  0
 12 10  1  0  0  0  0
 14 15  1  0  0  0  0
 15 13  2  0  0  0  0
 16 14  2  0  0  0  0
 17 18  1  0  0  0  0
 18 19  2  0  0  0  0
 18 22  1  0  0  0  0
 18 20  1  0  0  0  0
 20 21  1  0  0  0  0
 23 22  1  0  0  0  0
 24  1  1  0  0  0  0
 25 24  1  0  0  0  0
 27 26  2  0  0  0  0
 28 29  2  0  0  0  0
 28 27  1  0  0  0  0
 29 30  1  0  0  0  0
 30 31  2  0  0  0  0
 31 32  1  0  0  0  0
 32 33  1  0  0  0  0
 34 33  1  0  0  0  0
M  END
>  <minimizedAffinity>
-7.46544933

>  <CNNscore>
0.820066869

>  <CNNaffinity>
6.35534716

$$$$
