
 OpenBabel08012617343D

 32 35  0  0  1  0  0  0  0  0999 V2000
   17.5860   39.8630  123.5280 C   0  0  0  0  0  1  0  0  0  0  0  0
   16.9910   38.4860  123.8480 C   0  0  1  0  0  3  0  0  0  0  0  0
   17.9640   37.6190  124.6350 C   0  0  0  0  0  0  0  0  0  0  0  0
   17.7270   36.3500  124.9050 N   0  0  0  0  0  0  0  0  0  0  0  0
   19.4880   38.1950  125.1920 S   0  0  0  0  0  0  0  0  0  0  0  0
   18.7690   35.7910  125.6330 C   0  0  0  0  0  0  0  0  0  0  0  0
   19.8130   36.6610  125.8820 C   0  0  0  0  0  3  0  0  0  0  0  0
   18.7100   34.3940  126.0680 C   0  0  0  0  0  0  0  0  0  0  0  0
   19.3700   33.3590  125.3870 C   0  0  0  0  0  3  0  0  0  0  0  0
   17.9630   34.0640  127.2110 C   0  0  0  0  0  3  0  0  0  0  0  0
   19.2850   32.0350  125.8390 C   0  0  0  0  0  3  0  0  0  0  0  0
   17.8740   32.7430  127.6640 C   0  0  0  0  0  3  0  0  0  0  0  0
   18.5370   31.7250  126.9780 C   0  0  0  0  0  0  0  0  0  0  0  0
   18.4500   30.3680  127.4350 C   0  0  0  0  0  0  0  0  0  0  0  0
   18.3810   29.2680  127.8010 N   0  0  0  0  0  0  0  0  0  0  0  0
   15.5320   38.4840  124.4430 C   0  0  2  0  0  0  0  0  0  0  0  0
   15.5820   39.1090  125.7520 O   0  0  0  0  0  0  0  0  0  0  0  0
   16.1240   38.5290  126.3330 H   0  0  0  0  0  0  0  0  0  0  0  0
   14.9690   37.0480  124.6880 C   0  0  0  0  0  2  0  0  0  0  0  0
   14.3810   36.8370  125.9970 N   0  0  0  0  0  0  0  0  0  0  0  0
   14.8070   35.9930  126.9750 C   0  0  0  0  0  3  0  0  0  0  0  0
   13.2790   37.5090  126.3840 N   0  0  0  0  0  0  0  0  0  0  0  0
   14.0140   36.0950  128.0160 N   0  0  0  0  0  0  0  0  0  0  0  0
   13.0920   37.0190  127.6150 C   0  0  0  0  0  3  0  0  0  0  0  0
   14.5230   39.3060  123.6180 C   0  0  0  0  0  0  0  0  0  0  0  0
   13.8270   40.3920  124.1930 C   0  0  0  0  0  3  0  0  0  0  0  0
   14.2640   39.0330  122.2640 C   0  0  0  0  0  0  0  0  0  0  0  0
   12.9230   41.1530  123.4480 C   0  0  0  0  0  3  0  0  0  0  0  0
   13.3650   39.7860  121.5130 C   0  0  0  0  0  3  0  0  0  0  0  0
   12.7010   40.8420  122.1140 C   0  0  0  0  0  0  0  0  0  0  0  0
   14.8920   38.0240  121.6450 F   0  0  0  0  0  0  0  0  0  0  0  0
   11.8380   41.5730  121.4000 F   0  0  0  0  0  0  0  0  0  0  0  0
  2  1  1  1  0  0  0
  2 16  1  0  0  0  0
  2  3  1  0  0  0  0
  3  4  2  0  0  0  0
  3  5  1  0  0  0  0
  4  6  1  0  0  0  0
  5  7  1  0  0  0  0
  6  7  2  0  0  0  0
  6  8  1  0  0  0  0
  8 10  1  0  0  0  0
  9 11  1  0  0  0  0
  9  8  2  0  0  0  0
 10 12  2  0  0  0  0
 11 13  2  0  0  0  0
 13 14  1  0  0  0  0
 13 12  1  0  0  0  0
 14 15  3  0  0  0  0
 16 19  1  1  0  0  0
 16 17  1  0  0  0  0
 17 18  1  0  0  0  0
 19 20  1  0  0  0  0
 20 22  1  0  0  0  0
 20 21  1  0  0  0  0
 21 23  2  0  0  0  0
 22 24  2  0  0  0  0
 24 23  1  0  0  0  0
 25 26  1  0  0  0  0
 25 16  1  0  0  0  0
 27 25  2  0  0  0  0
 28 26  2  0  0  0  0
 29 30  2  0  0  0  0
 29 27  1  0  0  0  0
 30 28  1  0  0  0  0
 31 27  1  0  0  0  0
 32 30  1  0  0  0  0
M  END
>  <minimizedAffinity>
-9.44637489

>  <CNNscore>
0.267639279

>  <CNNaffinity>
6.89862776

$$$$
