
 OpenBabel08012608003D

 49 52  0  0  0  0  0  0  0  0999 V2000
   16.5640   37.1820  122.9920 C   0  0  0  0  0  2  0  0  0  0  0  0
   15.5560   38.0950  123.6310 C   0  0  0  0  0  0  0  0  0  0  0  0
   14.5260   40.0400  124.1110 C   0  0  0  0  0  0  0  0  0  0  0  0
   15.5940   39.4620  123.4800 N   0  0  0  0  0  0  0  0  0  0  0  0
   13.8060   39.0390  124.7420 C   0  0  0  0  0  0  0  0  0  0  0  0
   14.4540   37.7970  124.4240 C   0  0  0  0  0  0  0  0  0  0  0  0
   16.2790   39.9580  122.9230 H   0  0  0  0  0  0  0  0  0  0  0  0
   12.5800   39.2120  125.5720 C   0  0  0  0  0  1  0  0  0  0  0  0
   14.3820   41.4440  123.9940 C   0  0  0  0  0  3  0  0  0  0  0  0
   12.0950   43.5450  122.1610 C   0  0  0  0  0  0  0  0  0  0  0  0
   13.1410   43.4030  123.0070 C   0  0  0  0  0  0  0  0  0  0  0  0
   11.6540   42.1490  121.8280 C   0  0  0  0  0  0  0  0  0  0  0  0
   13.4180   41.9990  123.2450 C   0  0  0  0  0  0  0  0  0  0  0  0
   12.4970   41.3130  122.5170 N   0  0  0  0  0  0  0  0  0  0  0  0
   10.7410   41.8040  121.1020 O   0  0  0  0  0  0  0  0  0  0  0  0
   13.9570   44.4700  123.6590 C   0  0  0  0  0  1  0  0  0  0  0  0
   12.4360   40.3060  122.4640 H   0  0  0  0  0  0  0  0  0  0  0  0
   11.5120   44.7680  121.6610 C   0  0  0  0  0  3  0  0  0  0  0  0
   11.2720   45.0700  120.3790 C   0  0  0  0  0  2  0  0  0  0  0  0
   14.0090   36.4290  124.8490 C   0  0  0  0  0  2  0  0  0  0  0  0
   14.7560   35.9490  126.0860 C   0  0  0  0  0  2  0  0  0  0  0  0
   13.8500   35.9150  127.2790 C   0  0  0  0  0  0  0  0  0  0  0  0
   14.1950   35.7760  128.4410 O   0  0  0  0  0  0  0  0  0  0  0  0
   12.5470   36.0270  126.9580 O   0  0  0  0  0  0  0  0  0  0  0  0
   12.0830   35.9580  127.8190 H   0  0  0  0  0  0  0  0  0  0  0  0
   17.6810   36.7900  123.9110 C   0  0  0  0  0  0  0  0  0  0  0  0
   18.2240   35.5290  123.8610 N   0  0  0  0  0  0  0  0  0  0  0  0
   18.3250   37.4870  124.9230 C   0  0  0  0  0  0  0  0  0  0  0  0
   19.1810   35.3870  124.8330 C   0  0  0  0  0  0  0  0  0  0  0  0
   19.2670   36.5840  125.5220 C   0  0  0  0  0  0  0  0  0  0  0  0
   17.9300   34.7970  123.2240 H   0  0  0  0  0  0  0  0  0  0  0  0
   20.1730   36.8880  126.6670 C   0  0  0  0  0  1  0  0  0  0  0  0
   18.0670   38.9060  125.3440 C   0  0  0  0  0  2  0  0  0  0  0  0
   19.0260   39.8860  124.6830 C   0  0  0  0  0  2  0  0  0  0  0  0
   18.3190   41.1490  124.3010 C   0  0  0  0  0  0  0  0  0  0  0  0
   18.0270   42.0640  125.0530 O   0  0  0  0  0  0  0  0  0  0  0  0
   17.9910   41.1990  122.9960 O   0  0  0  0  0  0  0  0  0  0  0  0
   17.5100   42.0490  122.9040 H   0  0  0  0  0  0  0  0  0  0  0  0
   19.8030   34.1250  125.0010 C   0  0  0  0  0  3  0  0  0  0  0  0
   19.4200   33.2200  125.9120 C   0  0  0  0  0  0  0  0  0  0  0  0
   18.3740   33.3480  126.7740 N   0  0  0  0  0  0  0  0  0  0  0  0
   20.0150   31.9160  126.1930 C   0  0  0  0  0  0  0  0  0  0  0  0
   18.2560   32.2610  127.5990 C   0  0  0  0  0  0  0  0  0  0  0  0
   19.3540   31.3400  127.2200 C   0  0  0  0  0  0  0  0  0  0  0  0
   17.4290   32.0760  128.4700 O   0  0  0  0  0  0  0  0  0  0  0  0
   17.7140   34.1130  126.7820 H   0  0  0  0  0  0  0  0  0  0  0  0
   19.5310   30.0460  127.9200 C   0  0  0  0  0  1  0  0  0  0  0  0
   21.1510   31.2870  125.5500 C   0  0  0  0  0  3  0  0  0  0  0  0
   21.8690   31.8520  124.5720 C   0  0  0  0  0  2  0  0  0  0  0  0
  1  2  1  0  0  0  0
  1 26  1  0  0  0  0
  2  6  2  0  0  0  0
  3  5  2  0  0  0  0
  4  2  1  0  0  0  0
  4  3  1  0  0  0  0
  5  8  1  0  0  0  0
  6  5  1  0  0  0  0
  6 20  1  0  0  0  0
  7  4  1  0  0  0  0
  9  3  1  0  0  0  0
 10 11  2  0  0  0  0
 11 13  1  0  0  0  0
 11 16  1  0  0  0  0
 12 10  1  0  0  0  0
 12 14  1  0  0  0  0
 13  9  2  0  0  0  0
 14 13  1  0  0  0  0
 15 12  2  0  0  0  0
 17 14  1  0  0  0  0
 18 10  1  0  0  0  0
 19 18  2  0  0  0  0
 20 21  1  0  0  0  0
 21 22  1  0  0  0  0
 22 23  2  0  0  0  0
 24 22  1  0  0  0  0
 24 25  1  0  0  0  0
 26 28  2  0  0  0  0
 27 26  1  0  0  0  0
 27 29  1  0  0  0  0
 28 33  1  0  0  0  0
 28 30  1  0  0  0  0
 29 39  1  0  0  0  0
 29 30  2  0  0  0  0
 30 32  1  0  0  0  0
 31 27  1  0  0  0  0
 34 33  1  0  0  0  0
 35 34  1  0  0  0  0
 35 36  2  0  0  0  0
 37 35  1  0  0  0  0
 38 37  1  0  0  0  0
 39 40  2  0  0  0  0
 40 42  1  0  0  0  0
 40 41  1  0  0  0  0
 41 46  1  0  0  0  0
 41 43  1  0  0  0  0
 42 44  2  0  0  0  0
 43 45  2  0  0  0  0
 44 43  1  0  0  0  0
 44 47  1  0  0  0  0
 48 42  1  0  0  0  0
 49 48  2  0  0  0  0
M  END
>  <minimizedAffinity>
-9.173769

>  <CNNscore>
0.608796895

>  <CNNaffinity>
7.39775419

$$$$
