
 OpenBabel08012611553D

 36 39  0  0  0  0  0  0  0  0999 V2000
   17.1560   40.7440  124.6630 N   0  0  0  0  0  0  0  0  0  0  0  0
   16.1490   41.4570  124.0050 C   0  0  0  0  0  0  0  0  0  0  0  0
   14.9930   41.0360  123.9400 O   0  0  0  0  0  0  0  0  0  0  0  0
   16.5410   42.7610  123.3220 C   0  0  0  0  0  2  0  0  0  0  0  0
   15.8430   43.9750  123.9380 C   0  0  0  0  0  2  0  0  0  0  0  0
   16.8310   44.8470  124.7140 C   0  0  0  0  0  2  0  0  0  0  0  0
   16.1510   45.5730  125.8640 C   0  0  0  0  0  1  0  0  0  0  0  0
   18.2770   40.2610  123.8420 C   0  0  0  0  0  2  0  0  0  0  0  0
   18.6630   38.8160  124.0610 C   0  0  0  0  0  0  0  0  0  0  0  0
   19.8870   38.4690  124.6450 C   0  0  0  0  0  3  0  0  0  0  0  0
   17.7640   37.7900  123.7330 C   0  0  0  0  0  3  0  0  0  0  0  0
   20.2260   37.1280  124.8520 C   0  0  0  0  0  3  0  0  0  0  0  0
   18.1040   36.4510  123.9390 C   0  0  0  0  0  3  0  0  0  0  0  0
   19.3370   36.1010  124.5050 C   0  0  0  0  0  0  0  0  0  0  0  0
   19.6880   34.6920  124.7420 C   0  0  0  0  0  0  0  0  0  0  0  0
   20.8360   34.1830  124.0960 C   0  0  0  0  0  3  0  0  0  0  0  0
   18.9220   33.8200  125.5550 C   0  0  0  0  0  0  0  0  0  0  0  0
   21.2200   32.8500  124.2330 C   0  0  0  0  0  3  0  0  0  0  0  0
   19.3230   32.4720  125.6680 C   0  0  0  0  0  3  0  0  0  0  0  0
   20.4600   31.9930  125.0170 C   0  0  0  0  0  3  0  0  0  0  0  0
   17.7220   34.2200  126.2980 C   0  0  0  0  0  0  0  0  0  0  0  0
   16.5670   34.6110  125.7890 N   0  0  0  0  0  0  0  0  0  0  0  0
   17.5670   34.2090  127.6600 N   0  0  0  0  0  0  0  0  0  0  0  0
   15.7320   34.8640  126.8480 N   0  0  0  0  0  0  0  0  0  0  0  0
   16.3390   34.6230  127.9980 N   0  0  0  0  0  0  0  0  0  0  0  0
   18.2230   33.9530  128.3870 H   0  0  0  0  0  0  0  0  0  0  0  0
   17.2660   40.6380  126.1310 C   0  0  0  0  0  2  0  0  0  0  0  0
   18.4950   41.2890  126.8160 C   0  0  0  0  0  0  0  0  0  0  0  0
   19.6350   40.3580  127.2540 C   0  0  0  0  0  2  0  0  0  0  0  0
   19.2380   42.2630  125.8840 C   0  0  0  0  0  2  0  0  0  0  0  0
   20.8430   41.2730  127.4350 C   0  0  0  0  0  2  0  0  0  0  0  0
   20.6220   42.4580  126.5010 C   0  0  0  0  0  2  0  0  0  0  0  0
   17.9390   42.0720  128.0050 C   0  0  0  0  0  0  0  0  0  0  0  0
   17.2610   43.0860  127.9580 O   0  0  0  0  0  0  0  0  0  0  0  0
   18.2090   41.5060  129.1960 O   0  0  0  0  0  0  0  0  0  0  0  0
   17.7980   42.1130  129.8490 H   0  0  0  0  0  0  0  0  0  0  0  0
  1 27  1  0  0  0  0
  2  1  1  0  0  0  0
  3  2  2  0  0  0  0
  4  5  1  0  0  0  0
  4  2  1  0  0  0  0
  5  6  1  0  0  0  0
  6  7  1  0  0  0  0
  8  9  1  0  0  0  0
  8  1  1  0  0  0  0
  9 10  1  0  0  0  0
 10 12  2  0  0  0  0
 11 13  1  0  0  0  0
 11  9  2  0  0  0  0
 13 14  2  0  0  0  0
 14 15  1  0  0  0  0
 14 12  1  0  0  0  0
 15 17  1  0  0  0  0
 16 18  1  0  0  0  0
 16 15  2  0  0  0  0
 17 19  2  0  0  0  0
 17 21  1  0  0  0  0
 18 20  2  0  0  0  0
 20 19  1  0  0  0  0
 21 23  1  0  0  0  0
 22 21  2  0  0  0  0
 22 24  1  0  0  0  0
 23 25  1  0  0  0  0
 23 26  1  0  0  0  0
 24 25  2  0  0  0  0
 27 28  1  0  0  0  0
 28 29  1  0  0  0  0
 28 33  1  0  0  0  0
 29 31  1  0  0  0  0
 30 32  1  0  0  0  0
 30 28  1  0  0  0  0
 32 31  1  0  0  0  0
 33 35  1  0  0  0  0
 34 33  2  0  0  0  0
 35 36  1  0  0  0  0
M  END
>  <minimizedAffinity>
-8.24991512

>  <CNNscore>
0.708065808

>  <CNNaffinity>
6.54867363

$$$$
