
 OpenBabel08012612583D

 36 38  0  0  0  0  0  0  0  0999 V2000
   17.1750   40.2320  123.1430 N   0  0  0  0  0  0  0  0  0  0  0  0
   16.4090   41.2050  123.7440 C   0  0  0  0  0  0  0  0  0  0  0  0
   15.3700   41.0430  124.3660 O   0  0  0  0  0  0  0  0  0  0  0  0
   16.9650   42.4550  123.5330 N   0  0  0  0  0  0  0  0  0  0  0  0
   17.9080   40.5410  122.5110 H   0  0  0  0  0  0  0  0  0  0  0  0
   17.9740   42.4540  123.4730 H   0  0  0  0  0  0  0  0  0  0  0  0
   16.9470   38.8670  123.1640 C   0  0  0  0  0  0  0  0  0  0  0  0
   17.6890   37.9020  123.8310 C   0  0  0  0  0  0  0  0  0  0  0  0
   17.0930   36.6210  123.5950 C   0  0  0  0  0  0  0  0  0  0  0  0
   16.0040   36.5780  122.8340 N   0  0  0  0  0  0  0  0  0  0  0  0
   15.6500   38.1250  122.3560 S   0  0  0  0  0  0  0  0  0  0  0  0
   18.8700   38.2200  124.6130 C   0  0  0  0  0  0  0  0  0  0  0  0
   20.0530   37.6900  124.1940 N   0  0  0  0  0  0  0  0  0  0  0  0
   18.8330   38.9510  125.6030 O   0  0  0  0  0  0  0  0  0  0  0  0
   20.8960   37.9610  124.6800 H   0  0  0  0  0  0  0  0  0  0  0  0
   20.1380   37.1820  123.3210 H   0  0  0  0  0  0  0  0  0  0  0  0
   17.5680   35.4670  124.1350 O   0  0  0  0  0  0  0  0  0  0  0  0
   17.7280   35.4600  125.5580 C   0  0  0  0  0  2  0  0  0  0  0  0
   18.2770   34.1590  126.0770 C   0  0  0  0  0  0  0  0  0  0  0  0
   19.3510   33.5140  125.4560 C   0  0  0  0  0  0  0  0  0  0  0  0
   17.7520   33.5810  127.2330 C   0  0  0  0  0  0  0  0  0  0  0  0
   19.8680   32.3180  125.9490 C   0  0  0  0  0  3  0  0  0  0  0  0
   18.2510   32.3860  127.7450 C   0  0  0  0  0  3  0  0  0  0  0  0
   19.3100   31.7570  127.0950 C   0  0  0  0  0  0  0  0  0  0  0  0
   19.9130   34.0490  124.3620 F   0  0  0  0  0  0  0  0  0  0  0  0
   16.7500   34.1870  127.8860 F   0  0  0  0  0  0  0  0  0  0  0  0
   20.0050   30.1390  127.7800 Br  0  0  0  0  0  0  0  0  0  0  0  0
   16.3560   43.6230  124.1390 C   0  0  0  0  0  2  0  0  0  0  0  0
   17.1790   44.1680  125.3050 C   0  0  0  0  0  2  0  0  0  0  0  0
   16.8610   43.4760  126.6310 C   0  0  0  0  0  2  0  0  0  0  0  0
   17.5830   42.1380  126.8530 C   0  0  0  0  0  2  0  0  0  0  0  0
   18.9780   42.2830  127.2760 N   0  0  0  0  0  0  0  0  0  0  0  0
   19.9440   42.0810  126.1880 C   0  0  0  0  0  2  0  0  0  0  0  0
   19.3510   41.2630  128.2650 C   0  0  0  0  0  2  0  0  0  0  0  0
   21.2610   41.8610  126.9200 C   0  0  0  0  0  2  0  0  0  0  0  0
   20.8690   41.3430  128.2950 C   0  0  0  0  0  2  0  0  0  0  0  0
  1  7  1  0  0  0  0
  1  2  1  0  0  0  0
  2  3  2  0  0  0  0
  4  2  1  0  0  0  0
  4 28  1  0  0  0  0
  5  1  1  0  0  0  0
  6  4  1  0  0  0  0
  7  8  2  0  0  0  0
  8 12  1  0  0  0  0
  9  8  1  0  0  0  0
  9 17  1  0  0  0  0
 10  9  2  0  0  0  0
 11 10  1  0  0  0  0
 11  7  1  0  0  0  0
 12 14  2  0  0  0  0
 13 12  1  0  0  0  0
 13 15  1  0  0  0  0
 16 13  1  0  0  0  0
 17 18  1  0  0  0  0
 18 19  1  0  0  0  0
 19 21  1  0  0  0  0
 20 22  1  0  0  0  0
 20 19  2  0  0  0  0
 21 23  2  0  0  0  0
 21 26  1  0  0  0  0
 22 24  2  0  0  0  0
 24 23  1  0  0  0  0
 24 27  1  0  0  0  0
 25 20  1  0  0  0  0
 28 29  1  0  0  0  0
 29 30  1  0  0  0  0
 30 31  1  0  0  0  0
 31 32  1  0  0  0  0
 32 34  1  0  0  0  0
 33 35  1  0  0  0  0
 33 32  1  0  0  0  0
 34 36  1  0  0  0  0
 35 36  1  0  0  0  0
M  END
>  <minimizedAffinity>
-8.48422909

>  <CNNscore>
0.245831937

>  <CNNaffinity>
6.41048574

$$$$
