
 OpenBabel08012610243D

 34 37  0  0  0  0  0  0  0  0999 V2000
   17.2650   36.7810  125.5130 C   0  0  0  0  0  0  0  0  0  0  0  0
   16.5710   36.2790  126.6210 C   0  0  0  0  0  3  0  0  0  0  0  0
   15.2130   35.9620  126.5250 C   0  0  0  0  0  3  0  0  0  0  0  0
   14.5240   36.1390  125.3190 C   0  0  0  0  0  0  0  0  0  0  0  0
   15.2270   36.6080  124.2030 C   0  0  0  0  0  3  0  0  0  0  0  0
   16.5860   36.9270  124.2990 C   0  0  0  0  0  3  0  0  0  0  0  0
   18.7120   37.1160  125.6060 C   0  0  0  0  0  0  0  0  0  0  0  0
   19.6480   36.1470  125.8040 C   0  0  0  0  0  0  0  0  0  0  0  0
   21.1560   36.3690  125.8040 C   0  0  0  0  0  2  0  0  0  0  0  0
   21.7090   36.7870  124.4470 C   0  0  0  0  0  1  0  0  0  0  0  0
   19.2650   34.7180  125.9730 C   0  0  0  0  0  0  0  0  0  0  0  0
   18.6080   34.3450  127.1600 C   0  0  0  0  0  3  0  0  0  0  0  0
   19.5410   33.7240  125.0110 C   0  0  0  0  0  0  0  0  0  0  0  0
   18.2460   33.0160  127.3850 C   0  0  0  0  0  3  0  0  0  0  0  0
   19.1770   32.3960  125.2400 C   0  0  0  0  0  3  0  0  0  0  0  0
   18.5370   32.0560  126.4240 C   0  0  0  0  0  0  0  0  0  0  0  0
   20.3050   34.0900  123.5010 Cl  0  0  0  0  0  0  0  0  0  0  0  0
   18.1880   30.7830  126.6420 F   0  0  0  0  0  0  0  0  0  0  0  0
   19.1430   38.5330  125.4860 C   0  0  0  0  0  0  0  0  0  0  0  0
   18.8420   39.2560  124.3240 C   0  0  0  0  0  3  0  0  0  0  0  0
   19.8320   39.1480  126.5450 C   0  0  0  0  0  3  0  0  0  0  0  0
   19.2240   40.5960  124.1770 C   0  0  0  0  0  3  0  0  0  0  0  0
   20.2250   40.4910  126.4110 C   0  0  0  0  0  0  0  0  0  0  0  0
   19.9160   41.1770  125.2430 C   0  0  0  0  0  0  0  0  0  0  0  0
   20.9110   41.4370  127.2050 C   0  0  0  0  0  3  0  0  0  0  0  0
   20.4220   42.4380  125.4210 N   0  0  0  0  0  0  0  0  0  0  0  0
   21.0350   42.6230  126.6040 N   0  0  0  0  0  0  0  0  0  0  0  0
   20.3830   43.2170  124.7740 H   0  0  0  0  0  0  0  0  0  0  0  0
   13.1040   35.7950  125.1660 C   0  0  0  0  0  3  0  0  0  0  0  0
   12.1380   36.2260  125.9930 C   0  0  0  0  0  3  0  0  0  0  0  0
   10.7170   35.8890  125.8310 C   0  0  0  0  0  0  0  0  0  0  0  0
   10.0640   35.2640  126.6480 O   0  0  0  0  0  0  0  0  0  0  0  0
   10.1770   36.3290  124.6860 O   0  0  0  0  0  0  0  0  0  0  0  0
    9.2460   36.0280  124.7370 H   0  0  0  0  0  0  0  0  0  0  0  0
  1  7  1  0  0  0  0
  1  2  1  0  0  0  0
  3  2  2  0  0  0  0
  4  3  1  0  0  0  0
  5  6  1  0  0  0  0
  5  4  2  0  0  0  0
  6  1  2  0  0  0  0
  7  8  2  0  0  0  0
  8 11  1  0  0  0  0
  9  8  1  0  0  0  0
 10  9  1  0  0  0  0
 11 12  1  0  0  0  0
 12 14  2  0  0  0  0
 13 15  1  0  0  0  0
 13 11  2  0  0  0  0
 15 16  2  0  0  0  0
 16 18  1  0  0  0  0
 16 14  1  0  0  0  0
 17 13  1  0  0  0  0
 19  7  1  0  0  0  0
 19 21  1  0  0  0  0
 20 19  2  0  0  0  0
 22 20  1  0  0  0  0
 22 24  2  0  0  0  0
 23 21  2  0  0  0  0
 23 25  1  0  0  0  0
 24 26  1  0  0  0  0
 24 23  1  0  0  0  0
 26 27  1  0  0  0  0
 27 25  2  0  0  0  0
 28 26  1  0  0  0  0
 29  4  1  0  0  0  0
 29 30  2  0  0  0  0
 31 30  1  0  0  0  0
 31 32  2  0  0  0  0
 33 34  1  0  0  0  0
 33 31  1  0  0  0  0
M  END
>  <minimizedAffinity>
1.20249379

>  <CNNscore>
0.448786676

>  <CNNaffinity>
6.52691269

$$$$
