
 OpenBabel08012618393D

 35 38  0  0  0  0  0  0  0  0999 V2000
   16.6700   36.6470  123.7330 N   0  0  0  0  0  0  0  0  0  0  0  0
   16.0990   35.8390  123.5360 H   0  0  0  0  0  0  0  0  0  0  0  0
   16.1450   37.8990  123.4030 C   0  0  0  0  0  0  0  0  0  0  0  0
   14.6080   39.3580  122.1530 C   0  0  0  0  0  0  0  0  0  0  0  0
   15.0910   38.0800  122.5070 C   0  0  0  0  0  3  0  0  0  0  0  0
   15.2130   40.4960  122.7100 C   0  0  0  0  0  0  0  0  0  0  0  0
   16.2770   40.3290  123.6010 C   0  0  0  0  0  3  0  0  0  0  0  0
   16.7340   39.0480  123.9380 C   0  0  0  0  0  3  0  0  0  0  0  0
   13.4530   39.4530  121.1790 C   0  0  0  0  0  2  0  0  0  0  0  0
   12.2540   39.8170  121.8650 O   0  0  0  0  0  0  0  0  0  0  0  0
   12.1230   39.1660  123.1230 C   0  0  0  0  0  2  0  0  0  0  0  0
   11.8240   40.2130  124.1430 C   0  0  0  0  0  3  0  0  0  0  0  0
   11.5080   41.4840  123.8470 C   0  0  0  0  0  2  0  0  0  0  0  0
   14.6980   41.7020  122.3220 O   0  0  0  0  0  0  0  0  0  0  0  0
   15.5730   42.8100  122.1040 C   0  0  0  0  0  2  0  0  0  0  0  0
   14.8810   44.1390  122.4470 C   0  0  0  0  0  2  0  0  0  0  0  0
   15.1950   44.6240  123.7960 N   0  0  0  0  0  0  0  0  0  0  0  0
   14.1200   44.3230  124.7450 C   0  0  0  0  0  2  0  0  0  0  0  0
   16.3890   44.0010  124.3750 C   0  0  0  0  0  2  0  0  0  0  0  0
   14.7790   44.5960  126.0870 C   0  0  0  0  0  2  0  0  0  0  0  0
   16.2510   44.2650  125.8690 C   0  0  0  0  0  2  0  0  0  0  0  0
   17.9130   36.2300  124.2050 C   0  0  0  0  0  0  0  0  0  0  0  0
   18.8940   37.1460  124.1100 N   0  0  0  0  0  0  0  0  0  0  0  0
   18.1080   34.9960  124.6870 N   0  0  0  0  0  0  0  0  0  0  0  0
   20.1190   36.7890  124.5360 C   0  0  0  0  0  3  0  0  0  0  0  0
   19.3540   34.6750  125.0860 C   0  0  0  0  0  0  0  0  0  0  0  0
   20.4120   35.5510  125.0430 C   0  0  0  0  0  3  0  0  0  0  0  0
   19.5250   33.3200  125.5760 C   0  0  0  0  0  0  0  0  0  0  0  0
   20.3070   32.2500  125.1920 C   0  0  0  0  0  3  0  0  0  0  0  0
   18.7200   32.9560  126.6180 O   0  0  0  0  0  0  0  0  0  0  0  0
   19.9710   31.1770  126.0540 C   0  0  0  0  0  3  0  0  0  0  0  0
   18.9960   31.6500  126.9080 C   0  0  0  0  0  0  0  0  0  0  0  0
   18.2090   31.0410  128.0090 C   0  0  0  0  0  2  0  0  0  0  0  0
   19.0380   30.1190  128.7270 O   0  0  0  0  0  0  0  0  0  0  0  0
   19.8050   30.7400  129.7580 C   0  0  0  0  0  1  0  0  0  0  0  0
  1 22  1  0  0  0  0
  2  1  1  0  0  0  0
  3  1  1  0  0  0  0
  3  8  1  0  0  0  0
  4  5  1  0  0  0  0
  4  6  2  0  0  0  0
  5  3  2  0  0  0  0
  6  7  1  0  0  0  0
  7  8  2  0  0  0  0
  9 10  1  0  0  0  0
  9  4  1  0  0  0  0
 10 11  1  0  0  0  0
 11 12  1  0  0  0  0
 13 12  2  0  0  0  0
 14  6  1  0  0  0  0
 15 14  1  0  0  0  0
 15 16  1  0  0  0  0
 16 17  1  0  0  0  0
 17 19  1  0  0  0  0
 17 18  1  0  0  0  0
 18 20  1  0  0  0  0
 19 21  1  0  0  0  0
 21 20  1  0  0  0  0
 22 24  1  0  0  0  0
 23 22  2  0  0  0  0
 23 25  1  0  0  0  0
 24 26  2  0  0  0  0
 25 27  2  0  0  0  0
 26 28  1  0  0  0  0
 27 26  1  0  0  0  0
 28 30  1  0  0  0  0
 29 28  2  0  0  0  0
 29 31  1  0  0  0  0
 30 32  1  0  0  0  0
 31 32  2  0  0  0  0
 32 33  1  0  0  0  0
 33 34  1  0  0  0  0
 34 35  1  0  0  0  0
M  END
>  <minimizedAffinity>
-7.3182435

>  <CNNscore>
0.1039818

>  <CNNaffinity>
5.42514181

$$$$
