
 OpenBabel08012604523D

 31 35  0  0  1  0  0  0  0  0999 V2000
   18.8460   37.4370  125.2820 C   0  0  0  0  0  0  0  0  0  0  0  0
   19.3750   38.5500  125.9120 C   0  0  0  0  0  3  0  0  0  0  0  0
   18.8100   39.7960  125.6840 C   0  0  0  0  0  0  0  0  0  0  0  0
   17.7470   39.9250  124.8690 N   0  0  0  0  0  0  0  0  0  0  0  0
   17.2410   38.8050  124.3310 C   0  0  0  0  0  0  0  0  0  0  0  0
   17.7560   37.5790  124.5120 N   0  0  0  0  0  0  0  0  0  0  0  0
   19.3920   36.1640  125.4500 N   0  0  0  0  0  0  0  0  0  0  0  0
   18.6710   35.2300  126.3540 C   0  0  1  0  0  3  0  0  0  0  0  0
   18.4880   33.8530  125.6770 C   0  0  0  0  0  2  0  0  0  0  0  0
   19.7070   33.2340  125.2530 O   0  0  0  0  0  0  0  0  0  0  0  0
   20.0970   35.5260  124.3230 C   0  0  0  0  0  2  0  0  0  0  0  0
   20.6680   34.1590  124.7340 C   0  0  0  0  0  2  0  0  0  0  0  0
   19.4390   35.1160  127.6730 C   0  0  0  0  0  1  0  0  0  0  0  0
   19.3710   41.0330  126.3230 C   0  0  0  0  0  0  0  0  0  0  0  0
   20.8660   41.2110  126.4850 C   0  0  0  0  0  2  0  0  0  0  0  0
   20.1140   42.0740  125.5110 C   0  0  0  0  0  2  0  0  0  0  0  0
   18.3720   41.7880  127.6770 S   0  0  2  0  0  0  0  0  0  0  0  0
   19.3840   42.5490  128.5570 N   0  0  0  0  0  2  0  0  0  0  0  0
   17.4820   40.7660  128.1950 O   0  0  0  0  0  1  0  0  0  0  0  0
   17.3640   42.9850  126.8400 C   0  0  0  0  0  1  0  0  0  0  0  0
   19.8990   41.8950  129.1500 H   0  0  0  0  0  0  0  0  0  0  0  0
   16.0720   38.9710  123.4320 C   0  0  0  0  0  0  0  0  0  0  0  0
   15.7870   37.9890  122.3550 C   0  0  0  0  0  3  0  0  0  0  0  0
   15.2430   40.0290  123.5500 C   0  0  0  0  0  0  0  0  0  0  0  0
   14.7280   38.1320  121.5370 C   0  0  0  0  0  3  0  0  0  0  0  0
   15.1280   41.1970  124.3630 C   0  0  0  0  0  3  0  0  0  0  0  0
   14.0830   40.1460  122.6110 C   0  0  0  0  0  0  0  0  0  0  0  0
   13.8660   39.1910  121.6600 N   0  0  0  0  0  0  0  0  0  0  0  0
   14.0430   41.8420  123.9060 C   0  0  0  0  0  3  0  0  0  0  0  0
   13.3890   41.2290  122.8460 N   0  0  0  0  0  0  0  0  0  0  0  0
   13.0950   39.3050  121.0140 H   0  0  0  0  0  0  0  0  0  0  0  0
  1  7  1  0  0  0  0
  1  2  1  0  0  0  0
  3  2  2  0  0  0  0
  3 14  1  0  0  0  0
  4  3  1  0  0  0  0
  5  6  1  0  0  0  0
  5  4  2  0  0  0  0
  6  1  2  0  0  0  0
  7  8  1  0  0  0  0
  8 13  1  1  0  0  0
  9  8  1  0  0  0  0
 10  9  1  0  0  0  0
 11 12  1  0  0  0  0
 11  7  1  0  0  0  0
 12 10  1  0  0  0  0
 14 15  1  0  0  0  0
 14 17  1  0  0  0  0
 16 14  1  0  0  0  0
 16 15  1  0  0  0  0
 17 20  1  6  0  0  0
 17 19  1  0  0  0  0
 17 18  1  0  0  0  0
 18 21  1  0  0  0  0
 22 24  2  0  0  0  0
 22  5  1  0  0  0  0
 23 22  1  0  0  0  0
 24 26  1  0  0  0  0
 25 28  1  0  0  0  0
 25 23  2  0  0  0  0
 27 30  2  0  0  0  0
 27 24  1  0  0  0  0
 28 27  1  0  0  0  0
 29 26  2  0  0  0  0
 30 29  1  0  0  0  0
 31 28  1  0  0  0  0
M  END
>  <minimizedAffinity>
-8.05602932

>  <CNNscore>
0.374144942

>  <CNNaffinity>
6.04420853

$$$$
