
 OpenBabel08012608123D

 40 44  0  0  1  0  0  0  0  0999 V2000
   14.6870   39.8930  123.1500 C   0  0  2  0  0  3  0  0  0  0  0  0
   14.7570   38.9660  124.2980 N   0  0  0  0  0  0  0  0  0  0  0  0
   14.8850   36.9790  123.1080 O   0  0  0  0  0  0  0  0  0  0  0  0
   14.9490   37.6120  124.1480 C   0  0  0  0  0  0  0  0  0  0  0  0
   15.0620   39.3410  125.1890 H   0  0  0  0  0  0  0  0  0  0  0  0
   15.2600   36.8950  125.4580 C   0  0  0  0  0  0  0  0  0  0  0  0
   14.4540   37.1750  126.4470 N   0  0  0  0  0  0  0  0  0  0  0  0
   16.4020   35.9420  125.4440 C   0  0  0  0  0  0  0  0  0  0  0  0
   17.4460   36.1140  124.5300 C   0  0  0  0  0  3  0  0  0  0  0  0
   16.4720   34.9080  126.3860 C   0  0  0  0  0  3  0  0  0  0  0  0
   18.5450   35.2520  124.5450 C   0  0  0  0  0  3  0  0  0  0  0  0
   17.5760   34.0410  126.4180 C   0  0  0  0  0  0  0  0  0  0  0  0
   18.6250   34.2110  125.4830 C   0  0  0  0  0  0  0  0  0  0  0  0
   17.6640   33.0070  127.3650 C   0  0  0  0  0  3  0  0  0  0  0  0
   19.7310   33.3450  125.5160 C   0  0  0  0  0  3  0  0  0  0  0  0
   18.7690   32.1530  127.3880 C   0  0  0  0  0  3  0  0  0  0  0  0
   19.7980   32.3250  126.4660 C   0  0  0  0  0  0  0  0  0  0  0  0
   21.1640   31.2780  126.4980 Cl  0  0  0  0  0  0  0  0  0  0  0  0
   14.8380   36.5730  127.6520 O   0  0  0  0  0  0  0  0  0  0  0  0
   14.2440   36.9960  128.3020 H   0  0  0  0  0  0  0  0  0  0  0  0
   14.9430   41.3450  123.6560 C   0  0  0  0  0  2  0  0  0  0  0  0
   16.3450   41.6970  123.8890 N   0  0  0  0  0  0  0  0  0  0  0  0
   17.3010   40.7360  123.3400 C   0  0  0  0  0  2  0  0  0  0  0  0
   16.6740   41.7860  125.3120 C   0  0  0  0  0  2  0  0  0  0  0  0
   18.6050   41.0950  124.0440 C   0  0  0  0  0  2  0  0  0  0  0  0
   18.1910   41.8720  125.2890 C   0  0  0  0  0  2  0  0  0  0  0  0
   13.3860   39.7440  122.2750 C   0  0  2  0  0  3  0  0  0  0  0  0
   13.6550   39.8490  120.8710 O   0  0  0  0  0  0  0  0  0  0  0  0
   14.4560   39.3270  120.6900 H   0  0  0  0  0  0  0  0  0  0  0  0
   12.2660   40.7060  122.6320 C   0  0  0  0  0  0  0  0  0  0  0  0
   11.5880   40.6200  123.8570 C   0  0  0  0  0  3  0  0  0  0  0  0
   11.8910   41.7170  121.7330 C   0  0  0  0  0  3  0  0  0  0  0  0
   10.5590   41.5100  124.1760 C   0  0  0  0  0  3  0  0  0  0  0  0
   10.8580   42.6040  122.0470 C   0  0  0  0  0  0  0  0  0  0  0  0
   10.1770   42.4970  123.2650 C   0  0  0  0  0  0  0  0  0  0  0  0
   10.4410   43.8110  120.8820 Cl  0  0  0  0  0  0  0  0  0  0  0  0
    9.1770   43.4050  123.5260 O   0  0  0  0  0  0  0  0  0  0  0  0
    8.2650   43.0530  124.5840 C   0  0  0  0  0  3  0  0  0  0  0  0
    6.9260   42.4940  124.1830 C   0  0  0  0  0  2  0  0  0  0  0  0
    7.0320   43.9140  124.6520 C   0  0  0  0  0  2  0  0  0  0  0  0
  1 21  1  1  0  0  0
  1  2  1  0  0  0  0
  2  5  1  0  0  0  0
  3  4  2  0  0  0  0
  4  2  1  0  0  0  0
  4  6  1  0  0  0  0
  6  7  2  0  0  0  0
  7 19  1  0  0  0  0
  8  6  1  0  0  0  0
  8 10  1  0  0  0  0
  9 11  1  0  0  0  0
  9  8  2  0  0  0  0
 10 12  2  0  0  0  0
 11 13  2  0  0  0  0
 12 14  1  0  0  0  0
 13 15  1  0  0  0  0
 13 12  1  0  0  0  0
 14 16  2  0  0  0  0
 15 17  2  0  0  0  0
 17 18  1  0  0  0  0
 17 16  1  0  0  0  0
 19 20  1  0  0  0  0
 21 22  1  0  0  0  0
 22 24  1  0  0  0  0
 23 22  1  0  0  0  0
 23 25  1  0  0  0  0
 25 26  1  0  0  0  0
 26 24  1  0  0  0  0
 27 28  1  6  0  0  0
 27 30  1  0  0  0  0
 27  1  1  0  0  0  0
 29 28  1  0  0  0  0
 30 31  1  0  0  0  0
 31 33  2  0  0  0  0
 32 34  1  0  0  0  0
 32 30  2  0  0  0  0
 34 35  2  0  0  0  0
 35 37  1  0  0  0  0
 35 33  1  0  0  0  0
 36 34  1  0  0  0  0
 37 38  1  0  0  0  0
 38 40  1  0  0  0  0
 39 38  1  0  0  0  0
 39 40  1  0  0  0  0
M  END
>  <minimizedAffinity>
-9.08344364

>  <CNNscore>
0.184929937

>  <CNNaffinity>
6.58959246

$$$$
