
 OpenBabel08012609353D

 35 36  0  0  1  0  0  0  0  0999 V2000
   18.6030   34.0310  124.8420 O   0  0  0  0  0  0  0  0  0  0  0  0
   17.6910   34.4860  125.8430 C   0  0  0  0  0  2  0  0  0  0  0  0
   17.4830   35.9850  125.7200 C   0  0  1  0  0  3  0  0  0  0  0  0
   16.2800   36.5850  125.8600 C   0  0  0  0  0  0  0  0  0  0  0  0
   16.1170   38.0920  125.7420 C   0  0  0  0  0  0  0  0  0  0  0  0
   18.6080   36.7660  125.4710 N   0  0  0  0  0  0  0  0  0  0  0  0
   17.4290   38.8190  125.4740 C   0  0  0  0  0  0  0  0  0  0  0  0
   18.5990   38.1490  125.3660 C   0  0  0  0  0  0  0  0  0  0  0  0
   19.5020   36.2940  125.3650 H   0  0  0  0  0  0  0  0  0  0  0  0
   19.9470   38.7990  125.1780 C   0  0  0  0  0  1  0  0  0  0  0  0
   15.0710   35.7920  126.1610 C   0  0  0  0  0  0  0  0  0  0  0  0
   14.3570   35.2730  125.3170 O   0  0  0  0  0  0  0  0  0  0  0  0
   14.8860   35.7660  127.5050 O   0  0  0  0  0  0  0  0  0  0  0  0
   13.8720   36.6490  128.0040 C   0  0  0  0  0  2  0  0  0  0  0  0
   12.6280   36.5480  127.1410 C   0  0  0  0  0  1  0  0  0  0  0  0
   15.0020   38.4910  124.7590 C   0  0  0  0  0  0  0  0  0  0  0  0
   13.8540   39.1050  125.3090 C   0  0  0  0  0  3  0  0  0  0  0  0
   15.0480   38.2880  123.3620 C   0  0  0  0  0  0  0  0  0  0  0  0
   12.7830   39.4940  124.5070 C   0  0  0  0  0  3  0  0  0  0  0  0
   13.9600   38.6850  122.5610 C   0  0  0  0  0  0  0  0  0  0  0  0
   12.8350   39.2830  123.1350 C   0  0  0  0  0  3  0  0  0  0  0  0
   16.4330   37.5620  122.6120 Cl  0  0  0  0  0  0  0  0  0  0  0  0
   13.9380   38.4740  120.8410 Cl  0  0  0  0  0  0  0  0  0  0  0  0
   17.3260   40.2910  125.4120 C   0  0  0  0  0  0  0  0  0  0  0  0
   17.5100   40.9320  124.3900 O   0  0  0  0  0  0  0  0  0  0  0  0
   17.0850   40.7960  126.6470 O   0  0  0  0  0  0  0  0  0  0  0  0
   18.2320   41.3730  127.2690 C   0  0  0  0  0  1  0  0  0  0  0  0
   19.6650   33.2220  125.3460 C   0  0  0  0  0  2  0  0  0  0  0  0
   19.2450   32.4600  126.6050 C   0  0  0  0  0  2  0  0  0  0  0  0
   20.1870   31.4410  126.9360 O   0  0  0  0  0  0  0  0  0  0  0  0
   19.6330   30.3660  127.6990 C   0  0  0  0  0  2  0  0  0  0  0  0
   18.6970   30.8960  128.7940 C   0  0  0  0  0  2  0  0  0  0  0  0
   19.4060   31.1730  130.0420 N   0  0  0  0  0  0  0  0  0  0  0  0
   18.7400   31.5030  130.7390 H   0  0  0  0  0  0  0  0  0  0  0  0
   20.0680   31.9340  129.9000 H   0  0  0  0  0  0  0  0  0  0  0  0
  1 28  1  0  0  0  0
  1  2  1  0  0  0  0
  3  2  1  1  0  0  0
  3  4  1  0  0  0  0
  4 11  1  0  0  0  0
  5  4  2  0  0  0  0
  6  3  1  0  0  0  0
  7  5  1  0  0  0  0
  8  6  1  0  0  0  0
  8  7  2  0  0  0  0
  9  6  1  0  0  0  0
 10  8  1  0  0  0  0
 11 13  1  0  0  0  0
 12 11  2  0  0  0  0
 13 14  1  0  0  0  0
 15 14  1  0  0  0  0
 16 17  1  0  0  0  0
 16  5  1  0  0  0  0
 18 16  2  0  0  0  0
 19 17  2  0  0  0  0
 20 21  2  0  0  0  0
 20 18  1  0  0  0  0
 21 19  1  0  0  0  0
 22 18  1  0  0  0  0
 23 20  1  0  0  0  0
 24  7  1  0  0  0  0
 24 26  1  0  0  0  0
 25 24  2  0  0  0  0
 26 27  1  0  0  0  0
 28 29  1  0  0  0  0
 29 30  1  0  0  0  0
 30 31  1  0  0  0  0
 31 32  1  0  0  0  0
 32 33  1  0  0  0  0
 33 34  1  0  0  0  0
 35 33  1  0  0  0  0
M  END
>  <minimizedAffinity>
-7.16863155

>  <CNNscore>
0.156700328

>  <CNNaffinity>
5.10668755

$$$$
