
 OpenBabel08012614503D

 38 41  0  0  0  0  0  0  0  0999 V2000
   14.8970   38.5680  122.7480 C   0  0  0  0  0  2  0  0  0  0  0  0
   16.3590   38.1110  122.7120 C   0  0  0  0  0  2  0  0  0  0  0  0
   17.3200   39.1840  123.2560 C   0  0  0  0  0  2  0  0  0  0  0  0
   17.9090   38.8690  124.5700 N   0  0  0  0  0  0  0  0  0  0  0  0
   18.5130   39.9210  125.2950 C   0  0  0  0  0  0  0  0  0  0  0  0
   16.5040   43.7070  125.6470 N   0  0  0  0  0  0  0  0  0  0  0  0
   17.9420   43.6320  125.3060 C   0  0  0  0  0  2  0  0  0  0  0  0
   15.7930   42.5300  125.1080 C   0  0  0  0  0  2  0  0  0  0  0  0
   18.5900   42.3050  125.7500 C   0  0  0  0  0  2  0  0  0  0  0  0
   16.4230   41.2110  125.5950 C   0  0  0  0  0  2  0  0  0  0  0  0
   17.8460   41.1460  125.2570 N   0  0  0  0  0  0  0  0  0  0  0  0
   19.5940   39.8130  125.8730 O   0  0  0  0  0  0  0  0  0  0  0  0
   15.9240   44.9450  125.1320 C   0  0  0  0  0  1  0  0  0  0  0  0
   18.3550   37.5160  124.8260 C   0  0  0  0  0  0  0  0  0  0  0  0
   17.4790   36.5830  125.4060 C   0  0  0  0  0  3  0  0  0  0  0  0
   19.6470   37.0690  124.5110 C   0  0  0  0  0  3  0  0  0  0  0  0
   17.8950   35.2790  125.7120 C   0  0  0  0  0  3  0  0  0  0  0  0
   20.0590   35.7590  124.8050 C   0  0  0  0  0  3  0  0  0  0  0  0
   19.1950   34.8500  125.4200 C   0  0  0  0  0  0  0  0  0  0  0  0
   19.6520   33.5070  125.7970 C   0  0  0  0  0  0  0  0  0  0  0  0
   20.4970   32.7700  124.9520 C   0  0  0  0  0  3  0  0  0  0  0  0
   19.2520   32.9520  127.0290 C   0  0  0  0  0  3  0  0  0  0  0  0
   20.9520   31.4890  125.3020 C   0  0  0  0  0  3  0  0  0  0  0  0
   19.7200   31.6740  127.3680 C   0  0  0  0  0  0  0  0  0  0  0  0
   20.5510   30.9370  126.5310 C   0  0  0  0  0  0  0  0  0  0  0  0
   19.5250   30.8810  128.4720 N   0  0  0  0  0  0  0  0  0  0  0  0
   20.7750   29.7290  127.2270 C   0  0  0  0  0  3  0  0  0  0  0  0
   20.1520   29.6880  128.4080 N   0  0  0  0  0  0  0  0  0  0  0  0
   18.7420   31.2100  129.6390 C   0  0  0  0  0  1  0  0  0  0  0  0
   14.4070   39.0640  124.1130 C   0  0  0  0  0  2  0  0  0  0  0  0
   13.1630   38.3620  124.6630 C   0  0  0  0  0  2  0  0  0  0  0  0
   13.2650   36.8390  124.6500 C   0  0  0  0  0  2  0  0  0  0  0  0
   13.0810   36.2490  126.0330 C   0  0  0  0  0  0  0  0  0  0  0  0
   12.0150   35.8500  126.4930 O   0  0  0  0  0  0  0  0  0  0  0  0
   14.2510   36.1860  126.7570 N   0  0  0  0  0  0  0  0  0  0  0  0
   15.0360   36.8090  126.5810 H   0  0  0  0  0  0  0  0  0  0  0  0
   14.1010   35.7520  128.0980 O   0  0  0  0  0  0  0  0  0  0  0  0
   13.1490   35.5080  128.1340 H   0  0  0  0  0  0  0  0  0  0  0  0
  1 30  1  0  0  0  0
  2  1  1  0  0  0  0
  2  3  1  0  0  0  0
  3  4  1  0  0  0  0
  4 14  1  0  0  0  0
  4  5  1  0  0  0  0
  5 12  2  0  0  0  0
  7  6  1  0  0  0  0
  7  9  1  0  0  0  0
  8 10  1  0  0  0  0
  8  6  1  0  0  0  0
 11  5  1  0  0  0  0
 11 10  1  0  0  0  0
 11  9  1  0  0  0  0
 13  6  1  0  0  0  0
 14 15  1  0  0  0  0
 15 17  2  0  0  0  0
 16 18  1  0  0  0  0
 16 14  2  0  0  0  0
 18 19  2  0  0  0  0
 19 17  1  0  0  0  0
 19 20  1  0  0  0  0
 20 22  1  0  0  0  0
 21 23  1  0  0  0  0
 21 20  2  0  0  0  0
 22 24  2  0  0  0  0
 23 25  2  0  0  0  0
 24 26  1  0  0  0  0
 25 27  1  0  0  0  0
 25 24  1  0  0  0  0
 26 29  1  0  0  0  0
 27 28  2  0  0  0  0
 28 26  1  0  0  0  0
 30 31  1  0  0  0  0
 32 31  1  0  0  0  0
 32 33  1  0  0  0  0
 33 34  2  0  0  0  0
 33 35  1  0  0  0  0
 35 37  1  0  0  0  0
 36 35  1  0  0  0  0
 37 38  1  0  0  0  0
M  END
>  <minimizedAffinity>
-8.65919304

>  <CNNscore>
0.725884914

>  <CNNaffinity>
7.81005049

$$$$
