
 OpenBabel08012619493D

 38 43  0  0  1  0  0  0  0  0999 V2000
   17.6570   34.6420  125.3910 C   0  0  0  0  0  0  0  0  0  0  0  0
   16.4320   34.5190  125.5210 O   0  0  0  0  0  0  0  0  0  0  0  0
   18.3510   35.9910  125.6740 C   0  0  1  0  0  0  0  0  0  0  0  0
   19.6700   35.9180  127.5620 C   0  0  0  0  0  0  0  0  0  0  0  0
   20.5710   35.8120  126.4540 O   0  0  0  0  0  0  0  0  0  0  0  0
   18.3550   36.2200  127.0930 O   0  0  0  0  0  0  0  0  0  0  0  0
   19.8250   36.1370  125.2850 C   0  0  2  0  0  3  0  0  0  0  0  0
   20.0380   37.6120  124.8630 C   0  0  0  0  0  2  0  0  0  0  0  0
   17.6590   37.1810  124.9370 C   0  0  2  0  0  0  0  0  0  0  0  0
   18.7050   38.2940  125.1730 C   0  0  2  0  0  3  0  0  0  0  0  0
   16.3330   37.6710  125.5560 C   0  0  0  0  0  2  0  0  0  0  0  0
   18.3510   39.6140  124.4720 C   0  0  2  0  0  3  0  0  0  0  0  0
   15.8710   39.0400  125.0030 C   0  0  1  0  0  3  0  0  0  0  0  0
   19.4640   40.6560  124.6770 C   0  0  0  0  0  2  0  0  0  0  0  0
   16.9870   40.1360  125.0410 C   0  0  2  0  0  0  0  0  0  0  0  0
   19.1010   42.0070  124.0750 C   0  0  1  0  0  3  0  0  0  0  0  0
   16.5900   41.5430  124.4260 C   0  0  2  0  0  0  0  0  0  0  0  0
   17.7830   42.4970  124.6180 C   0  0  0  0  0  0  0  0  0  0  0  0
   15.3380   42.0980  125.1050 C   0  0  0  0  0  3  0  0  0  0  0  0
   17.7000   43.6750  125.2630 C   0  0  0  0  0  3  0  0  0  0  0  0
   15.2640   43.2690  125.7500 C   0  0  0  0  0  3  0  0  0  0  0  0
   16.4390   44.1540  125.8590 C   0  0  0  0  0  0  0  0  0  0  0  0
   16.3660   45.2410  126.4170 O   0  0  0  0  0  0  0  0  0  0  0  0
   19.6480   34.5930  128.3170 C   0  0  0  0  0  1  0  0  0  0  0  0
   20.1450   37.0360  128.4840 C   0  0  0  0  0  1  0  0  0  0  0  0
   17.4710   36.8290  123.4360 C   0  0  0  0  0  1  0  0  0  0  0  0
   17.2130   40.3600  126.3910 F   0  0  0  0  0  0  0  0  0  0  0  0
   20.1140   42.8730  124.3620 F   0  0  0  0  0  0  0  0  0  0  0  0
   16.2650   41.4950  122.9150 C   0  0  0  0  0  1  0  0  0  0  0  0
   15.3360   38.8590  123.6940 O   0  0  0  0  0  0  0  0  0  0  0  0
   14.6000   38.2240  123.7670 H   0  0  0  0  0  0  0  0  0  0  0  0
   18.4810   33.4670  124.8920 C   0  0  0  0  0  2  0  0  0  0  0  0
   18.2330   32.3220  125.6980 O   0  0  0  0  0  0  0  0  0  0  0  0
   19.3110   31.5270  125.9160 C   0  0  0  0  0  0  0  0  0  0  0  0
   20.2640   31.4000  125.1620 O   0  0  0  0  0  0  0  0  0  0  0  0
   19.2180   30.8440  127.2290 C   0  0  0  0  0  3  0  0  0  0  0  0
   18.1110   31.1840  128.2010 C   0  0  0  0  0  2  0  0  0  0  0  0
   18.0990   29.8630  127.4870 C   0  0  0  0  0  2  0  0  0  0  0  0
  1  2  2  0  0  0  0
  3  1  1  6  0  0  0
  3  6  1  0  0  0  0
  4 24  1  0  0  0  0
  4 25  1  0  0  0  0
  5  4  1  0  0  0  0
  6  4  1  0  0  0  0
  7  8  1  1  0  0  0
  7  3  1  0  0  0  0
  7  5  1  0  0  0  0
  9 26  1  6  0  0  0
  9 10  1  0  0  0  0
  9 11  1  0  0  0  0
  9  3  1  0  0  0  0
 10  8  1  6  0  0  0
 12 14  1  1  0  0  0
 12 15  1  0  0  0  0
 12 10  1  0  0  0  0
 13 30  1  6  0  0  0
 13 15  1  0  0  0  0
 13 11  1  0  0  0  0
 15 27  1  1  0  0  0
 16 28  1  1  0  0  0
 16 18  1  0  0  0  0
 16 14  1  0  0  0  0
 17 29  1  6  0  0  0
 17 18  1  0  0  0  0
 17 15  1  0  0  0  0
 17 19  1  0  0  0  0
 18 20  2  0  0  0  0
 19 21  2  0  0  0  0
 20 22  1  0  0  0  0
 21 22  1  0  0  0  0
 22 23  2  0  0  0  0
 30 31  1  0  0  0  0
 32  1  1  0  0  0  0
 32 33  1  0  0  0  0
 33 34  1  0  0  0  0
 34 36  1  0  0  0  0
 35 34  2  0  0  0  0
 36 38  1  0  0  0  0
 36 37  1  0  0  0  0
 38 37  1  0  0  0  0
M  END
>  <minimizedAffinity>
-4.72539568

>  <CNNscore>
0.651523829

>  <CNNaffinity>
6.93740225

$$$$
