
 OpenBabel08012605253D

 40 45  0  0  0  0  0  0  0  0999 V2000
   19.2820   36.9040  125.5910 C   0  0  0  0  0  0  0  0  0  0  0  0
   18.3040   36.3160  124.7780 C   0  0  0  0  0  3  0  0  0  0  0  0
   17.7940   35.0400  125.0630 C   0  0  0  0  0  3  0  0  0  0  0  0
   18.2600   34.3250  126.1700 C   0  0  0  0  0  0  0  0  0  0  0  0
   19.2630   34.8840  126.9610 C   0  0  0  0  0  3  0  0  0  0  0  0
   19.7700   36.1570  126.6700 C   0  0  0  0  0  3  0  0  0  0  0  0
   19.7390   38.2010  125.2940 N   0  0  0  0  0  0  0  0  0  0  0  0
   20.6540   38.2660  124.8750 H   0  0  0  0  0  0  0  0  0  0  0  0
   19.0010   39.4010  125.2760 C   0  0  0  0  0  0  0  0  0  0  0  0
   17.6090   41.7460  125.1290 C   0  0  0  0  0  0  0  0  0  0  0  0
   17.6290   40.9080  124.0710 N   0  0  0  0  0  0  0  0  0  0  0  0
   18.2830   41.4690  126.3310 C   0  0  0  0  0  0  0  0  0  0  0  0
   18.3390   39.7420  124.1450 N   0  0  0  0  0  0  0  0  0  0  0  0
   18.2920   42.3460  127.4480 C   0  0  0  0  0  3  0  0  0  0  0  0
   19.0060   40.2550  126.4060 C   0  0  0  0  0  0  0  0  0  0  0  0
   19.0000   42.0380  128.6100 C   0  0  0  0  0  3  0  0  0  0  0  0
   19.7220   39.9750  127.5990 C   0  0  0  0  0  3  0  0  0  0  0  0
   19.7170   40.8530  128.6850 C   0  0  0  0  0  3  0  0  0  0  0  0
   16.8210   42.9560  124.9040 C   0  0  0  0  0  0  0  0  0  0  0  0
   15.6030   44.6920  123.8960 C   0  0  0  0  0  0  0  0  0  0  0  0
   15.4580   44.9760  125.2420 C   0  0  0  0  0  3  0  0  0  0  0  0
   16.4030   43.5160  123.7120 C   0  0  0  0  0  3  0  0  0  0  0  0
   16.2730   43.8620  126.2510 S   0  0  0  0  0  0  0  0  0  0  0  0
   14.9970   45.4870  122.7880 C   0  0  0  0  0  1  0  0  0  0  0  0
   17.6840   33.0840  126.3620 O   0  0  0  0  0  0  0  0  0  0  0  0
   18.4210   32.1610  127.0780 C   0  0  0  0  0  0  0  0  0  0  0  0
   17.9980   31.9150  128.3450 N   0  0  0  0  0  0  0  0  0  0  0  0
   19.5140   31.5370  126.4710 C   0  0  0  0  0  0  0  0  0  0  0  0
   18.7290   31.0450  129.0700 C   0  0  0  0  0  3  0  0  0  0  0  0
   20.2480   30.6520  127.2710 C   0  0  0  0  0  3  0  0  0  0  0  0
   19.8580   30.4070  128.5890 C   0  0  0  0  0  3  0  0  0  0  0  0
   19.8930   31.7870  125.0820 C   0  0  0  0  0  0  0  0  0  0  0  0
   21.0120   32.5330  124.7630 C   0  0  0  0  0  3  0  0  0  0  0  0
   19.0620   31.2770  124.1470 N   0  0  0  0  0  0  0  0  0  0  0  0
   21.2330   32.7220  123.4220 C   0  0  0  0  0  3  0  0  0  0  0  0
   19.3960   31.4820  122.8690 C   0  0  0  0  0  0  0  0  0  0  0  0
   20.4400   32.2150  122.4600 N   0  0  0  0  0  0  0  0  0  0  0  0
   18.5930   30.9300  121.8960 N   0  0  0  0  0  0  0  0  0  0  0  0
   18.6670   31.4510  121.0310 H   0  0  0  0  0  0  0  0  0  0  0  0
   17.6690   30.7300  122.2560 H   0  0  0  0  0  0  0  0  0  0  0  0
  1  6  1  0  0  0  0
  2  3  1  0  0  0  0
  2  1  2  0  0  0  0
  3  4  2  0  0  0  0
  4 25  1  0  0  0  0
  4  5  1  0  0  0  0
  6  5  2  0  0  0  0
  7  1  1  0  0  0  0
  8  7  1  0  0  0  0
  9  7  1  0  0  0  0
  9 15  1  0  0  0  0
 10 12  1  0  0  0  0
 11 13  1  0  0  0  0
 11 10  2  0  0  0  0
 12 15  2  0  0  0  0
 12 14  1  0  0  0  0
 13  9  2  0  0  0  0
 14 16  2  0  0  0  0
 15 17  1  0  0  0  0
 16 18  1  0  0  0  0
 17 18  2  0  0  0  0
 19 10  1  0  0  0  0
 19 23  1  0  0  0  0
 20 21  2  0  0  0  0
 21 23  1  0  0  0  0
 22 20  1  0  0  0  0
 22 19  2  0  0  0  0
 24 20  1  0  0  0  0
 25 26  1  0  0  0  0
 26 27  2  0  0  0  0
 27 29  1  0  0  0  0
 28 26  1  0  0  0  0
 28 30  2  0  0  0  0
 30 31  1  0  0  0  0
 31 29  2  0  0  0  0
 32 28  1  0  0  0  0
 33 32  2  0  0  0  0
 34 32  1  0  0  0  0
 35 33  1  0  0  0  0
 36 34  2  0  0  0  0
 37 36  1  0  0  0  0
 37 35  2  0  0  0  0
 38 40  1  0  0  0  0
 38 36  1  0  0  0  0
 39 38  1  0  0  0  0
M  END
>  <minimizedAffinity>
-9.59920216

>  <CNNscore>
0.154056311

>  <CNNaffinity>
7.20031691

$$$$
