
 OpenBabel08012603433D

 44 45  0  0  1  0  0  0  0  0999 V2000
   18.3000   36.6710  124.6940 N   0  0  0  0  0  0  0  0  0  0  0  0
   19.1420   36.3830  125.7460 C   0  0  0  0  0  0  0  0  0  0  0  0
   19.4690   37.2180  126.5790 O   0  0  0  0  0  0  0  0  0  0  0  0
   18.4020   36.1060  123.8670 H   0  0  0  0  0  0  0  0  0  0  0  0
   17.9930   38.0500  124.3860 C   0  0  0  0  0  2  0  0  0  0  0  0
   18.9880   38.8890  125.0440 N   0  0  0  0  0  0  0  0  0  0  0  0
   18.7420   40.1190  125.3460 C   0  0  0  0  0  0  0  0  0  0  0  0
   17.4880   40.8620  124.9960 C   0  0  0  0  0  0  0  0  0  0  0  0
   15.9710   42.7520  125.2200 C   0  0  0  0  0  0  0  0  0  0  0  0
   15.3210   42.3470  124.0410 C   0  0  0  0  0  3  0  0  0  0  0  0
   17.0340   41.9740  125.7290 C   0  0  0  0  0  0  0  0  0  0  0  0
   15.7160   41.1960  123.3670 C   0  0  0  0  0  3  0  0  0  0  0  0
   16.7970   40.4590  123.8390 C   0  0  0  0  0  3  0  0  0  0  0  0
   15.4690   43.9840  125.9280 C   0  0  0  0  0  1  0  0  0  0  0  0
   17.6040   42.3690  126.9470 N   0  0  0  0  0  0  0  0  0  0  0  0
   17.1470   42.1260  128.2160 C   0  0  0  0  0  3  0  0  0  0  0  0
   17.8670   42.4600  129.1640 O   0  0  0  0  0  0  0  0  0  0  0  0
   18.3790   43.0190  126.9480 H   0  0  0  0  0  0  0  0  0  0  0  0
   19.8200   40.8430  126.0980 C   0  0  0  0  0  0  0  0  0  0  0  0
   20.4820   41.9140  125.4760 C   0  0  0  0  0  3  0  0  0  0  0  0
   20.2060   40.4480  127.3840 C   0  0  0  0  0  3  0  0  0  0  0  0
   21.4980   42.6020  126.1430 C   0  0  0  0  0  3  0  0  0  0  0  0
   21.2180   41.1450  128.0370 C   0  0  0  0  0  0  0  0  0  0  0  0
   21.8640   42.2180  127.4310 C   0  0  0  0  0  3  0  0  0  0  0  0
   21.5800   40.7710  129.2720 F   0  0  0  0  0  0  0  0  0  0  0  0
   19.5910   34.9160  125.7770 C   0  0  2  0  0  3  0  0  0  0  0  0
   19.6130   34.2670  124.3710 C   0  0  0  0  0  2  0  0  0  0  0  0
   19.9500   32.7760  124.2590 C   0  0  0  0  0  2  0  0  0  0  0  0
   21.4330   32.4710  124.2010 C   0  0  0  0  0  0  0  0  0  0  0  0
   22.1490   33.6080  124.3570 F   0  0  0  0  0  0  0  0  0  0  0  0
   21.7660   31.9500  123.0010 F   0  0  0  0  0  0  0  0  0  0  0  0
   21.8190   31.6090  125.1560 F   0  0  0  0  0  0  0  0  0  0  0  0
   18.9300   34.0320  126.8800 C   0  0  2  0  0  3  0  0  0  0  0  0
   19.2350   32.5170  126.8410 C   0  0  0  0  0  2  0  0  0  0  0  0
   19.9580   31.9750  128.0850 C   0  0  0  0  0  2  0  0  0  0  0  0
   19.5410   30.5940  128.5460 C   0  0  0  0  0  0  0  0  0  0  0  0
   18.2260   30.3770  128.3790 F   0  0  0  0  0  0  0  0  0  0  0  0
   19.8490   30.4010  129.8490 F   0  0  0  0  0  0  0  0  0  0  0  0
   20.2090   29.6530  127.8420 F   0  0  0  0  0  0  0  0  0  0  0  0
   17.4210   34.2890  126.7970 C   0  0  0  0  0  0  0  0  0  0  0  0
   16.7970   34.4520  128.0050 N   0  0  0  0  0  0  0  0  0  0  0  0
   16.7930   34.4180  125.7570 O   0  0  0  0  0  0  0  0  0  0  0  0
   17.1200   33.9100  128.7950 H   0  0  0  0  0  0  0  0  0  0  0  0
   15.7870   34.5240  127.9270 H   0  0  0  0  0  0  0  0  0  0  0  0
  1  2  1  0  0  0  0
  2 26  1  0  0  0  0
  2  3  2  0  0  0  0
  4  1  1  0  0  0  0
  5  1  1  0  0  0  0
  5  6  1  0  0  0  0
  6  7  2  0  0  0  0
  7 19  1  0  0  0  0
  8  7  1  0  0  0  0
  8 11  1  0  0  0  0
  9 11  2  0  0  0  0
  9 14  1  0  0  0  0
 10  9  1  0  0  0  0
 11 15  1  0  0  0  0
 12 13  1  0  0  0  0
 12 10  2  0  0  0  0
 13  8  2  0  0  0  0
 15 18  1  0  0  0  0
 15 16  1  0  0  0  0
 16 17  2  0  0  0  0
 19 21  1  0  0  0  0
 20 19  2  0  0  0  0
 20 22  1  0  0  0  0
 21 23  2  0  0  0  0
 22 24  2  0  0  0  0
 23 25  1  0  0  0  0
 24 23  1  0  0  0  0
 26 27  1  6  0  0  0
 26 33  1  0  0  0  0
 28 27  1  0  0  0  0
 29 28  1  0  0  0  0
 29 30  1  0  0  0  0
 29 32  1  0  0  0  0
 31 29  1  0  0  0  0
 33 34  1  6  0  0  0
 34 35  1  0  0  0  0
 35 36  1  0  0  0  0
 36 38  1  0  0  0  0
 37 36  1  0  0  0  0
 39 36  1  0  0  0  0
 40 33  1  0  0  0  0
 40 41  1  0  0  0  0
 41 43  1  0  0  0  0
 42 40  2  0  0  0  0
 44 41  1  0  0  0  0
M  END
>  <minimizedAffinity>
-8.27488041

>  <CNNscore>
0.432433009

>  <CNNaffinity>
7.62436295

$$$$
