
 OpenBabel08012606543D

 36 40  0  0  1  0  0  0  0  0999 V2000
   19.4540   34.3920  124.9730 C   0  0  0  0  0  0  0  0  0  0  0  0
   20.5140   35.1930  125.1390 N   0  0  0  0  0  0  0  0  0  0  0  0
   20.2630   36.4820  125.4280 C   0  0  0  0  0  3  0  0  0  0  0  0
   18.9970   37.0180  125.5750 C   0  0  0  0  0  0  0  0  0  0  0  0
   17.9570   36.0910  125.4060 C   0  0  0  0  0  0  0  0  0  0  0  0
   18.1870   34.7980  125.1210 N   0  0  0  0  0  0  0  0  0  0  0  0
   19.5960   33.0340  124.6920 N   0  0  0  0  0  0  0  0  0  0  0  0
   20.5830   32.9030  124.5150 H   0  0  0  0  0  0  0  0  0  0  0  0
   19.0200   31.9640  125.3930 C   0  0  0  0  0  0  0  0  0  0  0  0
   17.7380   30.0260  125.5020 C   0  0  0  0  0  0  0  0  0  0  0  0
   18.2480   31.0490  124.7740 N   0  0  0  0  0  0  0  0  0  0  0  0
   17.9660   29.8950  126.8670 C   0  0  0  0  0  0  0  0  0  0  0  0
   18.7510   30.8320  127.5400 C   0  0  0  0  0  0  0  0  0  0  0  0
   19.2890   31.8680  126.7620 C   0  0  0  0  0  3  0  0  0  0  0  0
   16.9050   29.0160  124.7780 C   0  0  0  0  0  1  0  0  0  0  0  0
   17.4370   28.8600  127.5370 F   0  0  0  0  0  0  0  0  0  0  0  0
   19.0370   30.7180  129.0190 C   0  0  0  0  0  3  0  0  0  0  0  0
   20.1480   31.5400  129.6310 C   0  0  0  0  0  2  0  0  0  0  0  0
   20.3060   30.0570  129.5080 C   0  0  0  0  0  2  0  0  0  0  0  0
   16.6380   36.5930  125.5640 N   0  0  0  0  0  0  0  0  0  0  0  0
   16.4860   36.7730  126.5520 H   0  0  0  0  0  0  0  0  0  0  0  0
   15.7470   37.0180  124.6470 C   0  0  0  0  0  0  0  0  0  0  0  0
   16.1140   37.1730  123.2860 C   0  0  0  0  0  3  0  0  0  0  0  0
   14.4670   37.3520  124.8240 N   0  0  0  0  0  0  0  0  0  0  0  0
   14.9830   37.6130  122.6320 C   0  0  0  0  0  0  0  0  0  0  0  0
   14.0270   37.7070  123.6080 N   0  0  0  0  0  0  0  0  0  0  0  0
   14.7480   37.9370  121.2050 C   0  0  0  0  0  1  0  0  0  0  0  0
   12.6460   38.1040  123.4600 C   0  0  0  0  0  1  0  0  0  0  0  0
   18.7180   38.3710  125.8950 N   0  0  0  0  0  0  0  0  0  0  0  0
   19.9810   39.1170  126.1350 C   0  0  0  0  0  2  0  0  0  0  0  0
   17.7810   39.0490  124.9600 C   0  0  0  0  0  2  0  0  0  0  0  0
   19.7000   40.6330  126.1740 C   0  0  0  0  0  2  0  0  0  0  0  0
   18.4770   40.1410  124.0980 C   0  0  2  0  0  3  0  0  0  0  0  0
   19.1750   41.1830  124.8990 N   0  0  0  0  0  0  0  0  0  0  0  0
   17.5000   40.6780  123.0440 C   0  0  0  0  0  1  0  0  0  0  0  0
   18.3980   42.3920  125.1650 C   0  0  0  0  0  1  0  0  0  0  0  0
  1  6  1  0  0  0  0
  1  2  2  0  0  0  0
  2  3  1  0  0  0  0
  3  4  2  0  0  0  0
  4 29  1  0  0  0  0
  5 20  1  0  0  0  0
  5  4  1  0  0  0  0
  6  5  2  0  0  0  0
  7  1  1  0  0  0  0
  7  9  1  0  0  0  0
  8  7  1  0  0  0  0
  9 14  1  0  0  0  0
 10 12  2  0  0  0  0
 11  9  2  0  0  0  0
 11 10  1  0  0  0  0
 12 16  1  0  0  0  0
 12 13  1  0  0  0  0
 13 17  1  0  0  0  0
 14 13  2  0  0  0  0
 15 10  1  0  0  0  0
 17 19  1  0  0  0  0
 17 18  1  0  0  0  0
 19 18  1  0  0  0  0
 20 21  1  0  0  0  0
 22 24  2  0  0  0  0
 22 20  1  0  0  0  0
 23 22  1  0  0  0  0
 25 23  2  0  0  0  0
 25 26  1  0  0  0  0
 26 24  1  0  0  0  0
 27 25  1  0  0  0  0
 28 26  1  0  0  0  0
 29 30  1  0  0  0  0
 30 32  1  0  0  0  0
 31 29  1  0  0  0  0
 33 35  1  1  0  0  0
 33 34  1  0  0  0  0
 33 31  1  0  0  0  0
 34 36  1  0  0  0  0
 34 32  1  0  0  0  0
M  END
>  <minimizedAffinity>
-9.34858227

>  <CNNscore>
0.269238442

>  <CNNaffinity>
7.31648493

$$$$
