
 OpenBabel08012618033D

 31 33  0  0  1  0  0  0  0  0999 V2000
   14.5870   35.5580  125.8020 C   0  0  0  0  0  2  0  0  0  0  0  0
   13.5410   36.6040  125.4280 C   0  0  0  0  0  2  0  0  0  0  0  0
   12.9490   37.2300  126.6570 C   0  0  0  0  0  0  0  0  0  0  0  0
   12.7710   36.6870  127.7340 O   0  0  0  0  0  0  0  0  0  0  0  0
   12.6020   38.5190  126.4710 O   0  0  0  0  0  0  0  0  0  0  0  0
   12.2510   38.7920  127.3450 H   0  0  0  0  0  0  0  0  0  0  0  0
   16.0140   36.1140  125.7630 C   0  0  1  0  0  3  0  0  0  0  0  0
   16.9950   35.0260  125.7130 N   0  0  0  0  0  0  0  0  0  0  0  0
   17.3740   34.3320  126.8360 C   0  0  0  0  0  0  0  0  0  0  0  0
   16.8510   34.4950  127.9330 O   0  0  0  0  0  0  0  0  0  0  0  0
   17.6040   35.0480  124.8980 H   0  0  0  0  0  0  0  0  0  0  0  0
   18.4920   33.3620  126.6800 C   0  0  0  0  0  0  0  0  0  0  0  0
   19.3090   33.3450  125.5440 C   0  0  0  0  0  3  0  0  0  0  0  0
   18.7000   32.4250  127.7010 C   0  0  0  0  0  3  0  0  0  0  0  0
   20.3370   32.4050  125.4490 C   0  0  0  0  0  0  0  0  0  0  0  0
   19.7320   31.4950  127.5880 C   0  0  0  0  0  0  0  0  0  0  0  0
   20.5570   31.4820  126.4670 C   0  0  0  0  0  3  0  0  0  0  0  0
   21.3410   32.3860  124.0520 Cl  0  0  0  0  0  0  0  0  0  0  0  0
   19.9900   30.3510  128.8470 Cl  0  0  0  0  0  0  0  0  0  0  0  0
   16.2310   36.9640  124.4860 C   0  0  0  0  0  0  0  0  0  0  0  0
   16.4030   36.3940  123.4010 O   0  0  0  0  0  0  0  0  0  0  0  0
   16.1870   38.3500  124.5800 N   0  0  0  0  0  0  0  0  0  0  0  0
   16.1430   39.1140  125.8300 C   0  0  0  0  0  2  0  0  0  0  0  0
   16.3070   39.1210  123.3420 C   0  0  0  0  0  2  0  0  0  0  0  0
   16.9710   40.3930  125.7270 C   0  0  0  0  0  2  0  0  0  0  0  0
   15.7400   40.5290  123.4940 C   0  0  0  0  0  2  0  0  0  0  0  0
   16.4650   41.3300  124.5960 C   0  0  0  0  0  0  0  0  0  0  0  0
   15.5510   42.4380  125.1540 C   0  0  0  0  0  2  0  0  0  0  0  0
   17.6220   42.1750  124.0340 C   0  0  0  0  0  2  0  0  0  0  0  0
   16.4930   43.4970  125.7310 C   0  0  0  0  0  2  0  0  0  0  0  0
   17.8560   43.2530  125.0860 C   0  0  0  0  0  2  0  0  0  0  0  0
  2  1  1  0  0  0  0
  2  3  1  0  0  0  0
  3  4  2  0  0  0  0
  5  3  1  0  0  0  0
  5  6  1  0  0  0  0
  7  1  1  6  0  0  0
  8  7  1  0  0  0  0
  8  9  1  0  0  0  0
  9 10  2  0  0  0  0
 11  8  1  0  0  0  0
 12  9  1  0  0  0  0
 12 14  1  0  0  0  0
 13 12  2  0  0  0  0
 15 13  1  0  0  0  0
 15 17  2  0  0  0  0
 16 14  2  0  0  0  0
 16 19  1  0  0  0  0
 17 16  1  0  0  0  0
 18 15  1  0  0  0  0
 20 22  1  0  0  0  0
 20  7  1  0  0  0  0
 21 20  2  0  0  0  0
 22 23  1  0  0  0  0
 24 26  1  0  0  0  0
 24 22  1  0  0  0  0
 25 23  1  0  0  0  0
 26 27  1  0  0  0  0
 27 28  1  0  0  0  0
 27 25  1  0  0  0  0
 28 30  1  0  0  0  0
 29 27  1  0  0  0  0
 29 31  1  0  0  0  0
 31 30  1  0  0  0  0
M  END
>  <minimizedAffinity>
-9.11747169

>  <CNNscore>
0.672983944

>  <CNNaffinity>
6.70377922

$$$$
