
 OpenBabel08012609503D

 39 45  0  0  1  0  0  0  0  0999 V2000
   18.1720   30.2810  122.9990 C   0  0  0  0  0  1  0  0  0  0  0  0
   18.7260   31.0870  124.0850 N   0  0  0  0  0  0  0  0  0  0  0  0
   18.1730   30.9190  125.3580 C   0  0  0  0  0  0  0  0  0  0  0  0
   17.3690   29.9970  125.5390 O   0  0  0  0  0  0  0  0  0  0  0  0
   18.4850   31.7690  126.5810 C   0  0  0  0  0  0  0  0  0  0  0  0
   17.7650   31.3750  127.7340 C   0  0  0  0  0  3  0  0  0  0  0  0
   17.8800   32.0290  128.9570 C   0  0  0  0  0  3  0  0  0  0  0  0
   18.7280   33.1170  129.0760 C   0  0  0  0  0  3  0  0  0  0  0  0
   19.4640   33.5460  127.9710 C   0  0  0  0  0  0  0  0  0  0  0  0
   19.3620   32.8760  126.7130 C   0  0  0  0  0  0  0  0  0  0  0  0
   20.1710   33.4400  125.5710 C   0  0  1  0  0  3  0  0  0  0  0  0
   20.7750   32.3580  124.6670 C   0  0  0  0  0  2  0  0  0  0  0  0
   19.6610   32.1070  123.6430 C   0  0  2  0  0  3  0  0  0  0  0  0
   18.9910   33.4240  123.5610 C   0  0  0  0  0  0  0  0  0  0  0  0
   18.2240   34.0790  122.7290 N   0  0  0  0  0  0  0  0  0  0  0  0
   18.0290   35.3000  123.3580 C   0  0  0  0  0  0  0  0  0  0  0  0
   17.2810   36.4070  122.9390 C   0  0  0  0  0  3  0  0  0  0  0  0
   17.2410   37.5470  123.7590 C   0  0  0  0  0  3  0  0  0  0  0  0
   17.9330   37.6140  124.9840 C   0  0  0  0  0  0  0  0  0  0  0  0
   18.6900   36.5000  125.4050 C   0  0  0  0  0  3  0  0  0  0  0  0
   18.7120   35.3730  124.5780 C   0  0  0  0  0  0  0  0  0  0  0  0
   19.2960   34.1610  124.6600 N   0  0  0  0  0  0  0  0  0  0  0  0
   20.3350   34.6060  128.0160 O   0  0  0  0  0  0  0  0  0  0  0  0
   19.8590   35.8460  128.5170 C   0  0  0  0  0  3  0  0  0  0  0  0
   20.1250   35.8600  129.8470 F   0  0  0  0  0  0  0  0  0  0  0  0
   20.5840   36.8510  127.9690 F   0  0  0  0  0  0  0  0  0  0  0  0
   17.8700   38.8220  125.8170 C   0  0  0  0  0  0  0  0  0  0  0  0
   16.6950   39.5110  126.0690 C   0  0  0  0  0  3  0  0  0  0  0  0
   18.9800   39.3880  126.4200 C   0  0  0  0  0  3  0  0  0  0  0  0
   16.6020   40.6250  126.8260 N   0  0  0  0  0  0  0  0  0  0  0  0
   18.9550   40.5020  127.1880 N   0  0  0  0  0  0  0  0  0  0  0  0
   17.7480   41.0720  127.3740 C   0  0  0  0  0  0  0  0  0  0  0  0
   17.7000   42.3920  128.2140 C   0  0  0  0  0  0  0  0  0  0  0  0
   16.7250   42.4930  129.4200 C   0  0  0  0  0  2  0  0  0  0  0  0
   17.0130   43.6660  127.6490 C   0  0  0  0  0  2  0  0  0  0  0  0
   16.4930   43.9760  129.0690 C   0  0  0  0  0  2  0  0  0  0  0  0
   19.0460   42.7890  128.6990 N   0  0  0  0  0  0  0  0  0  0  0  0
   19.4750   42.0360  129.2420 H   0  0  0  0  0  0  0  0  0  0  0  0
   19.6920   42.9480  127.9240 H   0  0  0  0  0  0  0  0  0  0  0  0
  1  2  1  0  0  0  0
  2  3  1  0  0  0  0
  3  4  2  0  0  0  0
  3  5  1  0  0  0  0
  5 10  2  0  0  0  0
  5  6  1  0  0  0  0
  6  7  2  0  0  0  0
  7  8  1  0  0  0  0
  9 23  1  0  0  0  0
  9  8  2  0  0  0  0
 10  9  1  0  0  0  0
 11 12  1  6  0  0  0
 11 10  1  0  0  0  0
 13  2  1  0  0  0  0
 13 12  1  1  0  0  0
 14 13  1  0  0  0  0
 14 22  1  0  0  0  0
 15 16  1  0  0  0  0
 15 14  2  0  0  0  0
 16 21  1  0  0  0  0
 17 16  2  0  0  0  0
 17 18  1  0  0  0  0
 18 19  2  0  0  0  0
 19 20  1  0  0  0  0
 19 27  1  0  0  0  0
 21 22  1  0  0  0  0
 21 20  2  0  0  0  0
 22 11  1  0  0  0  0
 23 24  1  0  0  0  0
 24 25  1  0  0  0  0
 26 24  1  0  0  0  0
 27 28  2  0  0  0  0
 27 29  1  0  0  0  0
 28 30  1  0  0  0  0
 29 31  2  0  0  0  0
 30 32  2  0  0  0  0
 31 32  1  0  0  0  0
 32 33  1  0  0  0  0
 33 37  1  0  0  0  0
 33 34  1  0  0  0  0
 35 33  1  0  0  0  0
 35 36  1  0  0  0  0
 36 34  1  0  0  0  0
 37 38  1  0  0  0  0
 39 37  1  0  0  0  0
M  END
>  <minimizedAffinity>
5.31142378

>  <CNNscore>
0.192608938

>  <CNNaffinity>
6.10432482

$$$$
