
 OpenBabel08012612013D

 37 40  0  0  0  0  0  0  0  0999 V2000
   19.8760   36.0170  125.0880 C   0  0  0  0  0  3  0  0  0  0  0  0
   19.5400   34.7360  124.3020 C   0  0  0  0  0  2  0  0  0  0  0  0
   19.7350   33.4780  125.1370 C   0  0  0  0  0  2  0  0  0  0  0  0
   18.9350   33.5040  126.3640 N   0  0  0  0  0  0  0  0  0  0  0  0
   18.4380   32.3750  127.0080 C   0  0  0  0  0  0  0  0  0  0  0  0
   17.7960   32.4490  128.0580 O   0  0  0  0  0  0  0  0  0  0  0  0
   18.6640   34.8130  126.9590 C   0  0  0  0  0  2  0  0  0  0  0  0
   19.7450   35.8280  126.6090 C   0  0  0  0  0  2  0  0  0  0  0  0
   19.0710   37.1860  124.6080 C   0  0  0  0  0  0  0  0  0  0  0  0
   18.4760   39.1280  124.1330 N   0  0  0  0  0  0  0  0  0  0  0  0
   19.5210   38.4400  124.6400 N   0  0  0  0  0  0  0  0  0  0  0  0
   17.4440   38.2830  123.7870 C   0  0  0  0  0  0  0  0  0  0  0  0
   17.8110   37.0460  124.0940 N   0  0  0  0  0  0  0  0  0  0  0  0
   18.5950   40.5680  124.0030 C   0  0  0  0  0  2  0  0  0  0  0  0
   19.1870   41.2110  125.2430 C   0  0  0  0  0  1  0  0  0  0  0  0
   16.1690   38.6570  123.1840 C   0  0  0  0  0  0  0  0  0  0  0  0
   15.5610   37.8690  122.2180 C   0  0  0  0  0  3  0  0  0  0  0  0
   15.5980   39.8090  123.5940 N   0  0  0  0  0  0  0  0  0  0  0  0
   14.3820   38.1980  121.6290 N   0  0  0  0  0  0  0  0  0  0  0  0
   14.4100   40.1520  123.0120 C   0  0  0  0  0  0  0  0  0  0  0  0
   13.7960   39.3470  122.0310 C   0  0  0  0  0  0  0  0  0  0  0  0
   13.8740   41.4200  123.4950 C   0  0  0  0  0  0  0  0  0  0  0  0
   12.6310   41.8660  123.4920 N   0  0  0  0  0  0  0  0  0  0  0  0
   14.7470   42.3280  124.0440 O   0  0  0  0  0  0  0  0  0  0  0  0
   12.6580   43.1190  124.0640 N   0  0  0  0  0  0  0  0  0  0  0  0
   13.9140   43.3680  124.3680 C   0  0  0  0  0  0  0  0  0  0  0  0
   14.5150   44.5780  125.0260 C   0  0  0  0  0  0  0  0  0  0  0  0
   15.5770   44.1200  126.0400 C   0  0  0  0  0  1  0  0  0  0  0  0
   13.4190   45.3670  125.7640 C   0  0  0  0  0  1  0  0  0  0  0  0
   15.1680   45.5030  123.9840 C   0  0  0  0  0  1  0  0  0  0  0  0
   12.6170   39.6840  121.3540 N   0  0  0  0  0  0  0  0  0  0  0  0
   12.7640   40.5230  120.7980 H   0  0  0  0  0  0  0  0  0  0  0  0
   11.8730   39.8860  122.0190 H   0  0  0  0  0  0  0  0  0  0  0  0
   18.7370   31.0280  126.3710 C   0  0  0  0  0  2  0  0  0  0  0  0
   19.1130   29.9860  127.4180 C   0  0  0  0  0  2  0  0  0  0  0  0
   17.9540   29.3000  127.8810 O   0  0  0  0  0  0  0  0  0  0  0  0
   17.6530   28.7500  127.1280 H   0  0  0  0  0  0  0  0  0  0  0  0
  1  8  1  0  0  0  0
  2  1  1  0  0  0  0
  2  3  1  0  0  0  0
  3  4  1  0  0  0  0
  4  7  1  0  0  0  0
  4  5  1  0  0  0  0
  5  6  2  0  0  0  0
  8  7  1  0  0  0  0
  9 11  2  0  0  0  0
  9  1  1  0  0  0  0
 10 11  1  0  0  0  0
 12 13  2  0  0  0  0
 12 10  1  0  0  0  0
 13  9  1  0  0  0  0
 14 10  1  0  0  0  0
 14 15  1  0  0  0  0
 16 18  1  0  0  0  0
 16 12  1  0  0  0  0
 17 16  2  0  0  0  0
 19 21  2  0  0  0  0
 19 17  1  0  0  0  0
 20 22  1  0  0  0  0
 20 18  2  0  0  0  0
 21 20  1  0  0  0  0
 22 24  1  0  0  0  0
 23 22  2  0  0  0  0
 23 25  1  0  0  0  0
 24 26  1  0  0  0  0
 25 26  2  0  0  0  0
 26 27  1  0  0  0  0
 27 29  1  0  0  0  0
 27 28  1  0  0  0  0
 30 27  1  0  0  0  0
 31 33  1  0  0  0  0
 31 21  1  0  0  0  0
 32 31  1  0  0  0  0
 34  5  1  0  0  0  0
 34 35  1  0  0  0  0
 35 36  1  0  0  0  0
 37 36  1  0  0  0  0
M  END
>  <minimizedAffinity>
-8.477108

>  <CNNscore>
0.182799101

>  <CNNaffinity>
6.10515594

$$$$
