
 OpenBabel08012618253D

 26 28  0  0  1  0  0  0  0  0999 V2000
   19.7840   33.0670  125.4380 N   0  0  0  0  0  0  0  0  0  0  0  0
   20.0540   31.9200  126.1620 C   0  0  0  0  0  3  0  0  0  0  0  0
   19.3670   31.4820  127.2280 C   0  0  0  0  0  0  0  0  0  0  0  0
   18.1910   32.2840  127.6440 C   0  0  0  0  0  0  0  0  0  0  0  0
   17.4400   31.9490  128.5540 O   0  0  0  0  0  0  0  0  0  0  0  0
   17.9000   33.5250  126.8890 C   0  0  0  0  0  0  0  0  0  0  0  0
   16.8200   34.3250  127.2500 C   0  0  0  0  0  3  0  0  0  0  0  0
   16.5640   35.4690  126.5110 C   0  0  0  0  0  0  0  0  0  0  0  0
   15.5080   36.2220  126.8580 F   0  0  0  0  0  0  0  0  0  0  0  0
   17.3820   35.8130  125.4270 C   0  0  0  0  0  0  0  0  0  0  0  0
   18.4260   35.0140  125.0860 N   0  0  0  0  0  0  0  0  0  0  0  0
   18.6920   33.8890  125.7970 C   0  0  0  0  0  0  0  0  0  0  0  0
   20.5460   33.4680  124.2500 C   0  0  0  0  0  2  0  0  0  0  0  0
   21.6530   32.4680  123.9480 C   0  0  0  0  0  1  0  0  0  0  0  0
   19.8330   30.2520  127.8810 C   0  0  0  0  0  0  0  0  0  0  0  0
   20.7770   29.5700  127.5160 O   0  0  0  0  0  0  0  0  0  0  0  0
   19.1570   29.9440  128.9960 O   0  0  0  0  0  0  0  0  0  0  0  0
   19.5570   29.1100  129.3160 H   0  0  0  0  0  0  0  0  0  0  0  0
   17.1610   36.9260  124.6490 N   0  0  0  0  0  0  0  0  0  0  0  0
   16.4990   36.7990  123.3560 C   0  0  0  0  0  2  0  0  0  0  0  0
   17.9880   38.1290  124.7090 C   0  0  0  0  0  2  0  0  0  0  0  0
   16.5050   38.2280  122.8180 C   0  0  0  0  0  2  0  0  0  0  0  0
   17.8600   38.7470  123.2950 C   0  0  1  0  0  3  0  0  0  0  0  0
   17.9470   40.2040  123.2250 N   0  0  0  0  0  0  0  0  0  0  0  0
   17.2120   40.6210  123.7950 H   0  0  0  0  0  0  0  0  0  0  0  0
   18.8280   40.5140  123.6330 H   0  0  0  0  0  0  0  0  0  0  0  0
  1 12  1  0  0  0  0
  1  2  1  0  0  0  0
  2  3  2  0  0  0  0
  3  4  1  0  0  0  0
  3 15  1  0  0  0  0
  4  5  2  0  0  0  0
  6  7  1  0  0  0  0
  6  4  1  0  0  0  0
  8  9  1  0  0  0  0
  8  7  2  0  0  0  0
 10  8  1  0  0  0  0
 11 10  2  0  0  0  0
 11 12  1  0  0  0  0
 12  6  2  0  0  0  0
 13  1  1  0  0  0  0
 14 13  1  0  0  0  0
 15 17  1  0  0  0  0
 16 15  2  0  0  0  0
 17 18  1  0  0  0  0
 19 21  1  0  0  0  0
 19 10  1  0  0  0  0
 20 19  1  0  0  0  0
 22 23  1  0  0  0  0
 22 20  1  0  0  0  0
 23 24  1  1  0  0  0
 23 21  1  0  0  0  0
 24 26  1  0  0  0  0
 24 25  1  0  0  0  0
M  END
>  <minimizedAffinity>
-7.82221937

>  <CNNscore>
0.634794831

>  <CNNaffinity>
5.66430092

$$$$
