
 OpenBabel08012606383D

 34 38  0  0  1  0  0  0  0  0999 V2000
   12.9800   42.9200  119.5430 C   0  0  0  0  0  2  0  0  0  0  0  0
   12.6000   44.3070  119.2950 N   0  0  0  0  0  0  0  0  0  0  0  0
   12.8900   44.8810  120.0870 H   0  0  0  0  0  0  0  0  0  0  0  0
   11.1590   44.4370  119.0940 C   0  0  0  0  0  2  0  0  0  0  0  0
   10.8480   44.4680  117.6030 C   0  0  0  0  0  1  0  0  0  0  0  0
   12.9550   42.6150  121.0210 C   0  0  0  0  0  0  0  0  0  0  0  0
   11.7690   42.1300  121.5760 C   0  0  0  0  0  3  0  0  0  0  0  0
   14.0740   42.7630  121.8750 C   0  0  0  0  0  0  0  0  0  0  0  0
   11.5980   41.8280  122.8790 N   0  0  0  0  0  0  0  0  0  0  0  0
   13.9250   42.4630  123.2480 C   0  0  0  0  0  0  0  0  0  0  0  0
   12.6740   42.0070  123.6760 C   0  0  0  0  0  3  0  0  0  0  0  0
   15.3830   43.2730  121.3240 C   0  0  0  0  0  1  0  0  0  0  0  0
   15.0040   42.6060  124.2330 C   0  0  0  0  0  0  0  0  0  0  0  0
   15.1390   43.8050  124.9710 C   0  0  0  0  0  3  0  0  0  0  0  0
   15.9170   41.5570  124.4420 C   0  0  0  0  0  3  0  0  0  0  0  0
   16.1590   43.9720  125.9140 C   0  0  0  0  0  3  0  0  0  0  0  0
   16.9270   41.7250  125.3730 C   0  0  0  0  0  0  0  0  0  0  0  0
   17.0430   42.9300  126.0940 C   0  0  0  0  0  0  0  0  0  0  0  0
   18.0370   40.8680  125.8390 C   0  0  2  0  0  3  0  0  0  0  0  0
   18.1280   42.8670  127.0120 N   0  0  0  0  0  0  0  0  0  0  0  0
   18.2680   39.5760  125.5400 C   0  0  0  0  0  0  0  0  0  0  0  0
   18.7690   41.6720  126.7210 N   0  0  0  0  0  0  0  0  0  0  0  0
   19.3380   38.8810  126.1000 N   0  0  0  0  0  0  0  0  0  0  0  0
   17.5020   38.8160  124.6660 N   0  0  0  0  0  2  0  0  0  0  0  0
   19.2590   37.7160  125.5630 C   0  0  0  0  0  0  0  0  0  0  0  0
   18.0890   37.6730  124.6530 C   0  0  0  0  0  0  0  0  0  0  0  0
   20.1060   36.5340  125.7320 C   0  0  0  0  0  3  0  0  0  0  0  0
   17.8170   36.4230  123.9460 C   0  0  0  0  0  0  0  0  0  0  0  0
   19.7650   35.4450  125.0320 C   0  0  0  0  0  0  0  0  0  0  0  0
   18.6270   35.3790  124.1420 C   0  0  0  0  0  3  0  0  0  0  0  0
   18.7130   43.6960  126.9080 H   0  0  0  0  0  0  0  0  0  0  0  0
   19.2110   41.1390  127.4700 H   0  0  0  0  0  0  0  0  0  0  0  0
   16.7530   36.3810  123.1270 F   0  0  0  0  0  0  0  0  0  0  0  0
   20.5140   34.3300  125.1460 F   0  0  0  0  0  0  0  0  0  0  0  0
  1  6  1  0  0  0  0
  2  1  1  0  0  0  0
  2  3  1  0  0  0  0
  4  2  1  0  0  0  0
  5  4  1  0  0  0  0
  6  7  2  0  0  0  0
  6  8  1  0  0  0  0
  7  9  1  0  0  0  0
  8 10  2  0  0  0  0
  9 11  2  0  0  0  0
 10 11  1  0  0  0  0
 10 13  1  0  0  0  0
 12  8  1  0  0  0  0
 13 15  2  0  0  0  0
 13 14  1  0  0  0  0
 14 16  2  0  0  0  0
 15 17  1  0  0  0  0
 16 18  1  0  0  0  0
 17 19  1  0  0  0  0
 17 18  2  0  0  0  0
 18 20  1  0  0  0  0
 19 21  1  1  0  0  0
 19 22  1  0  0  0  0
 21 23  2  0  0  0  0
 22 20  1  0  0  0  0
 22 32  1  0  0  0  0
 24 21  1  0  0  0  0
 25 27  1  0  0  0  0
 25 23  1  0  0  0  0
 26 24  1  0  0  0  0
 26 25  2  0  0  0  0
 28 30  2  0  0  0  0
 28 26  1  0  0  0  0
 29 34  1  0  0  0  0
 29 27  2  0  0  0  0
 30 29  1  0  0  0  0
 31 20  1  0  0  0  0
 33 28  1  0  0  0  0
M  END
>  <minimizedAffinity>
-8.40327454

>  <CNNscore>
0.240296811

>  <CNNaffinity>
5.81537676

$$$$
