
 OpenBabel08012618173D

 29 31  0  0  0  0  0  0  0  0999 V2000
   19.9280   32.3070  125.7000 C   0  0  0  0  0  2  0  0  0  0  0  0
   18.9380   33.4540  125.7470 C   0  0  0  0  0  0  0  0  0  0  0  0
   17.8050   33.3770  126.2140 O   0  0  0  0  0  0  0  0  0  0  0  0
   19.4330   34.6190  125.1880 N   0  0  0  0  0  0  0  0  0  0  0  0
   20.4430   34.7770  125.1700 H   0  0  0  0  0  0  0  0  0  0  0  0
   18.6770   35.7960  125.4380 N   0  0  0  0  0  0  0  0  0  0  0  0
   19.1400   36.9530  124.8190 C   0  0  0  0  0  0  0  0  0  0  0  0
   20.0590   36.8670  124.0040 O   0  0  0  0  0  0  0  0  0  0  0  0
   18.4490   35.9010  126.4280 H   0  0  0  0  0  0  0  0  0  0  0  0
   18.4750   38.1230  125.2160 N   0  0  0  0  0  0  0  0  0  0  0  0
   18.8680   38.7550  126.4810 C   0  0  0  0  0  2  0  0  0  0  0  0
   17.2860   38.6310  124.5390 C   0  0  0  0  0  0  0  0  0  0  0  0
   19.2360   40.1920  126.2860 C   0  0  0  0  0  0  0  0  0  0  0  0
   16.7990   38.0070  123.3720 C   0  0  0  0  0  3  0  0  0  0  0  0
   16.5750   39.7850  124.9650 C   0  0  0  0  0  0  0  0  0  0  0  0
   20.5500   40.6640  126.3170 C   0  0  0  0  0  3  0  0  0  0  0  0
   18.1960   41.0800  126.0240 C   0  0  0  0  0  0  0  0  0  0  0  0
   15.6390   38.4470  122.7220 C   0  0  0  0  0  0  0  0  0  0  0  0
   16.9060   40.6120  126.0240 O   0  0  0  0  0  0  0  0  0  0  0  0
   15.3970   40.2040  124.3200 C   0  0  0  0  0  3  0  0  0  0  0  0
   20.8030   42.0220  126.1110 C   0  0  0  0  0  3  0  0  0  0  0  0
   18.4360   42.4380  125.8390 C   0  0  0  0  0  3  0  0  0  0  0  0
   14.9260   39.5340  123.1990 C   0  0  0  0  0  3  0  0  0  0  0  0
   19.7480   42.9080  125.8770 C   0  0  0  0  0  3  0  0  0  0  0  0
   15.0910   37.6300  121.3070 Cl  0  0  0  0  0  0  0  0  0  0  0  0
   20.1940   31.7240  127.0880 C   0  0  0  0  0  2  0  0  0  0  0  0
   19.6830   30.2890  127.2530 C   0  0  0  0  0  2  0  0  0  0  0  0
   18.3240   30.2140  127.9360 C   0  0  0  0  0  2  0  0  0  0  0  0
   17.2990   28.9970  127.1390 Cl  0  0  0  0  0  0  0  0  0  0  0  0
  1  2  1  0  0  0  0
  1 26  1  0  0  0  0
  2  3  2  0  0  0  0
  4  6  1  0  0  0  0
  4  2  1  0  0  0  0
  5  4  1  0  0  0  0
  6  9  1  0  0  0  0
  7 10  1  0  0  0  0
  7  6  1  0  0  0  0
  8  7  2  0  0  0  0
 10 11  1  0  0  0  0
 12 15  1  0  0  0  0
 12 10  1  0  0  0  0
 13 16  1  0  0  0  0
 13 11  1  0  0  0  0
 14 12  2  0  0  0  0
 15 19  1  0  0  0  0
 17 19  1  0  0  0  0
 17 13  2  0  0  0  0
 18 23  2  0  0  0  0
 18 14  1  0  0  0  0
 20 15  2  0  0  0  0
 21 16  2  0  0  0  0
 22 24  2  0  0  0  0
 22 17  1  0  0  0  0
 23 20  1  0  0  0  0
 24 21  1  0  0  0  0
 25 18  1  0  0  0  0
 26 27  1  0  0  0  0
 27 28  1  0  0  0  0
 29 28  1  0  0  0  0
M  END
>  <minimizedAffinity>
-7.73441505

>  <CNNscore>
0.243640333

>  <CNNaffinity>
6.04858446

$$$$
