
 OpenBabel08012612493D

 37 41  0  0  1  0  0  0  0  0999 V2000
   13.1920   43.3490  120.4940 C   0  0  0  0  0  0  0  0  0  0  0  0
   13.2670   42.7620  119.4260 O   0  0  0  0  0  0  0  0  0  0  0  0
   12.4090   42.8840  121.7330 C   0  0  2  0  0  0  0  0  0  0  0  0
   10.5240   43.9590  123.8750 C   0  0  0  0  0  0  0  0  0  0  0  0
   10.0010   43.2080  122.6380 C   0  0  0  0  0  2  0  0  0  0  0  0
   11.9370   43.4330  124.2200 C   0  0  0  0  0  2  0  0  0  0  0  0
   10.9460   43.3050  121.4400 C   0  0  0  0  0  2  0  0  0  0  0  0
   12.9460   43.5260  123.0510 C   0  0  1  0  0  3  0  0  0  0  0  0
   14.3790   43.0010  123.3650 C   0  0  2  0  0  3  0  0  0  0  0  0
   12.5160   41.3420  121.8250 C   0  0  0  0  0  2  0  0  0  0  0  0
   14.6090   41.4600  123.3670 C   0  0  1  0  0  0  0  0  0  0  0  0
   15.0320   43.6420  124.5840 C   0  0  0  0  0  0  0  0  0  0  0  0
   13.9430   40.8390  122.1060 C   0  0  0  0  0  2  0  0  0  0  0  0
   16.2200   41.2070  123.4040 C   0  0  2  0  0  0  0  0  0  0  0  0
   14.6760   44.7200  125.0550 O   0  0  0  0  0  0  0  0  0  0  0  0
   16.2190   42.9720  125.1870 C   0  0  0  0  0  3  0  0  0  0  0  0
   16.5260   39.6900  123.2580 C   0  0  0  0  0  2  0  0  0  0  0  0
   16.8060   41.8540  124.6950 C   0  0  0  0  0  0  0  0  0  0  0  0
   17.9140   39.2690  123.7220 C   0  0  0  0  0  2  0  0  0  0  0  0
   18.1330   41.2780  125.2960 C   0  0  2  0  0  0  0  0  0  0  0  0
   18.1300   39.7170  125.1770 C   0  0  2  0  0  3  0  0  0  0  0  0
   18.3130   41.5990  126.7780 C   0  0  0  0  0  3  0  0  0  0  0  0
   19.3110   38.9750  125.8870 C   0  0  0  0  0  0  0  0  0  0  0  0
   18.9050   40.8110  127.6950 C   0  0  0  0  0  0  0  0  0  0  0  0
   19.4970   39.5020  127.3160 C   0  0  0  0  0  0  0  0  0  0  0  0
   19.0460   41.2580  129.0430 C   0  0  0  0  0  0  0  0  0  0  0  0
   20.1750   38.8850  128.1410 O   0  0  0  0  0  0  0  0  0  0  0  0
   19.1250   41.6770  130.1220 N   0  0  0  0  0  0  0  0  0  0  0  0
   10.5370   45.4810  123.6360 C   0  0  0  0  0  1  0  0  0  0  0  0
    9.5840   43.6810  125.0650 C   0  0  0  0  0  1  0  0  0  0  0  0
   13.9330   40.7820  124.6050 C   0  0  0  0  0  1  0  0  0  0  0  0
   16.9470   41.9100  122.2090 C   0  0  0  0  0  1  0  0  0  0  0  0
   19.3050   41.9880  124.5780 C   0  0  0  0  0  1  0  0  0  0  0  0
   20.6640   39.0810  125.1660 C   0  0  0  0  0  1  0  0  0  0  0  0
   18.9710   37.4650  126.0220 C   0  0  0  0  0  1  0  0  0  0  0  0
   13.7840   44.5470  120.6320 O   0  0  0  0  0  0  0  0  0  0  0  0
   14.1790   44.7250  119.7530 H   0  0  0  0  0  0  0  0  0  0  0  0
  1 36  1  0  0  0  0
  2  1  2  0  0  0  0
  3  1  1  6  0  0  0
  3 10  1  0  0  0  0
  3  8  1  0  0  0  0
  4  6  1  0  0  0  0
  4 30  1  0  0  0  0
  5  4  1  0  0  0  0
  7  3  1  0  0  0  0
  7  5  1  0  0  0  0
  8  9  1  0  0  0  0
  8  6  1  1  0  0  0
  9 11  1  0  0  0  0
  9 12  1  1  0  0  0
 10 13  1  0  0  0  0
 11 14  1  0  0  0  0
 11 31  1  1  0  0  0
 12 15  2  0  0  0  0
 12 16  1  0  0  0  0
 13 11  1  0  0  0  0
 14 32  1  6  0  0  0
 14 18  1  0  0  0  0
 17 14  1  0  0  0  0
 17 19  1  0  0  0  0
 18 16  2  0  0  0  0
 18 20  1  0  0  0  0
 20 33  1  6  0  0  0
 20 22  1  0  0  0  0
 21 19  1  6  0  0  0
 21 20  1  0  0  0  0
 21 23  1  0  0  0  0
 22 24  2  0  0  0  0
 23 35  1  0  0  0  0
 23 25  1  0  0  0  0
 24 26  1  0  0  0  0
 25 24  1  0  0  0  0
 25 27  2  0  0  0  0
 26 28  3  0  0  0  0
 29  4  1  0  0  0  0
 34 23  1  0  0  0  0
 37 36  1  0  0  0  0
M  END
>  <minimizedAffinity>
-5.40816259

>  <CNNscore>
0.437265486

>  <CNNaffinity>
6.43005896

$$$$
