
 OpenBabel08012616343D

 37 40  0  0  1  0  0  0  0  0999 V2000
   17.1240   37.5790  125.0680 C   0  0  1  0  0  0  0  0  0  0  0  0
   18.0310   38.7150  125.7130 C   0  0  1  0  0  3  0  0  0  0  0  0
   19.5390   38.7150  125.5330 C   0  0  0  0  0  1  0  0  0  0  0  0
   17.4520   40.0760  125.2150 C   0  0  0  0  0  2  0  0  0  0  0  0
   16.0480   39.6970  124.8020 C   0  0  1  0  0  3  0  0  0  0  0  0
   15.1300   40.6290  124.0260 C   0  0  2  0  0  3  0  0  0  0  0  0
   15.2160   42.1030  124.4130 C   0  0  0  0  0  2  0  0  0  0  0  0
   14.3020   42.9230  123.5010 C   0  0  0  0  0  2  0  0  0  0  0  0
   12.8830   42.4000  123.5290 C   0  0  0  0  0  0  0  0  0  0  0  0
   11.8910   43.2410  123.8770 C   0  0  0  0  0  3  0  0  0  0  0  0
   10.4950   42.7920  124.0340 C   0  0  0  0  0  0  0  0  0  0  0  0
    9.6030   43.5740  124.3330 O   0  0  0  0  0  0  0  0  0  0  0  0
   10.2240   41.3620  123.8170 C   0  0  0  0  0  3  0  0  0  0  0  0
   11.2020   40.5170  123.4680 C   0  0  0  0  0  3  0  0  0  0  0  0
   12.6720   40.8860  123.2460 C   0  0  1  0  0  0  0  0  0  0  0  0
   12.9520   40.6010  121.7540 C   0  0  0  0  0  1  0  0  0  0  0  0
   13.6640   40.0890  124.1870 C   0  0  2  0  0  0  0  0  0  0  0  0
   13.2830   40.4330  125.4850 F   0  0  0  0  0  0  0  0  0  0  0  0
   13.6590   38.5110  124.2290 C   0  0  2  0  0  3  0  0  0  0  0  0
   14.8750   37.8120  123.5960 C   0  0  0  0  0  2  0  0  0  0  0  0
   16.2620   38.3760  124.0120 C   0  0  2  0  0  0  0  0  0  0  0  0
   17.0810   38.5500  122.6980 C   0  0  0  0  0  1  0  0  0  0  0  0
   17.6470   36.2470  124.4410 C   0  0  0  0  0  0  0  0  0  0  0  0
   17.1600   35.8450  123.3730 O   0  0  0  0  0  0  0  0  0  0  0  0
   18.7620   35.4670  125.1100 C   0  0  0  0  0  2  0  0  0  0  0  0
   19.4700   34.6790  124.1470 O   0  0  0  0  0  0  0  0  0  0  0  0
   19.7070   33.4040  124.5470 C   0  0  0  0  0  0  0  0  0  0  0  0
   18.9770   32.7490  125.2790 O   0  0  0  0  0  0  0  0  0  0  0  0
   20.9990   32.9100  123.9700 C   0  0  0  0  0  1  0  0  0  0  0  0
   16.1640   37.1630  126.1010 O   0  0  0  0  0  0  0  0  0  0  0  0
   15.6660   35.8950  125.9990 C   0  0  0  0  0  0  0  0  0  0  0  0
   16.2070   34.9960  125.3690 O   0  0  0  0  0  0  0  0  0  0  0  0
   14.3790   35.7770  126.7930 C   0  0  0  0  0  3  0  0  0  0  0  0
   13.2130   35.4060  125.8810 C   0  0  0  0  0  1  0  0  0  0  0  0
   14.0980   37.0840  127.5250 C   0  0  0  0  0  1  0  0  0  0  0  0
   12.4950   37.9070  123.6730 O   0  0  0  0  0  0  0  0  0  0  0  0
   11.8700   37.7700  124.4080 H   0  0  0  0  0  0  0  0  0  0  0  0
  1 23  1  6  0  0  0
  1  2  1  0  0  0  0
  1 30  1  0  0  0  0
  2  3  1  6  0  0  0
  4  2  1  0  0  0  0
  5  4  1  6  0  0  0
  6 17  1  0  0  0  0
  6  7  1  1  0  0  0
  6  5  1  0  0  0  0
  8  9  1  0  0  0  0
  8  7  1  0  0  0  0
  9 10  2  0  0  0  0
 10 11  1  0  0  0  0
 11 12  2  0  0  0  0
 13 11  1  0  0  0  0
 14 13  2  0  0  0  0
 15 16  1  6  0  0  0
 15 14  1  0  0  0  0
 15  9  1  0  0  0  0
 15 17  1  0  0  0  0
 17 19  1  0  0  0  0
 17 18  1  1  0  0  0
 19 36  1  6  0  0  0
 20 21  1  0  0  0  0
 20 19  1  0  0  0  0
 21 22  1  6  0  0  0
 21  5  1  0  0  0  0
 21  1  1  0  0  0  0
 23 25  1  0  0  0  0
 24 23  2  0  0  0  0
 26 27  1  0  0  0  0
 26 25  1  0  0  0  0
 27 28  2  0  0  0  0
 29 27  1  0  0  0  0
 31 30  1  0  0  0  0
 31 33  1  0  0  0  0
 32 31  2  0  0  0  0
 33 35  1  0  0  0  0
 34 33  1  0  0  0  0
 36 37  1  0  0  0  0
M  END
>  <minimizedAffinity>
-9.15066242

>  <CNNscore>
0.377295732

>  <CNNaffinity>
6.2591629

$$$$
