
 OpenBabel08012614583D

 46 51  0  0  0  0  0  0  0  0999 V2000
   18.0300   37.8530  124.3050 C   0  0  0  0  0  0  0  0  0  0  0  0
   17.4580   36.5890  124.0970 C   0  0  0  0  0  3  0  0  0  0  0  0
   18.2410   35.4330  124.1540 C   0  0  0  0  0  3  0  0  0  0  0  0
   19.6120   35.5310  124.3860 C   0  0  0  0  0  0  0  0  0  0  0  0
   20.1750   36.7850  124.6180 C   0  0  0  0  0  0  0  0  0  0  0  0
   21.4790   36.9110  124.9060 F   0  0  0  0  0  0  0  0  0  0  0  0
   19.3960   37.9410  124.5760 C   0  0  0  0  0  3  0  0  0  0  0  0
   17.1660   38.9630  124.2160 N   0  0  0  0  0  0  0  0  0  0  0  0
   16.0310   39.2220  124.9540 C   0  0  0  0  0  0  0  0  0  0  0  0
   15.5590   38.4800  125.8120 O   0  0  0  0  0  0  0  0  0  0  0  0
   17.4270   39.6720  123.5270 H   0  0  0  0  0  0  0  0  0  0  0  0
   15.3560   40.5290  124.6370 C   0  0  0  0  0  0  0  0  0  0  0  0
   14.2710   43.0630  124.0550 C   0  0  0  0  0  0  0  0  0  0  0  0
   15.5740   42.9180  124.3250 C   0  0  0  0  0  3  0  0  0  0  0  0
   13.4130   41.9580  123.9900 N   0  0  0  0  0  0  0  0  0  0  0  0
   16.1270   41.6290  124.6160 C   0  0  0  0  0  3  0  0  0  0  0  0
   13.8960   40.6640  124.3150 C   0  0  0  0  0  0  0  0  0  0  0  0
   13.2120   39.6360  124.3120 O   0  0  0  0  0  0  0  0  0  0  0  0
   13.7700   44.3370  123.8390 O   0  0  0  0  0  0  0  0  0  0  0  0
   13.6830   45.1160  125.0460 C   0  0  0  0  0  3  0  0  0  0  0  0
   14.8250   44.6680  125.9550 C   0  0  0  0  0  1  0  0  0  0  0  0
   12.3460   44.8670  125.7410 C   0  0  0  0  0  1  0  0  0  0  0  0
   12.0570   42.0640  123.5050 C   0  0  0  0  0  0  0  0  0  0  0  0
   11.7830   42.2490  122.1390 C   0  0  0  0  0  3  0  0  0  0  0  0
   10.9710   42.0020  124.3970 C   0  0  0  0  0  3  0  0  0  0  0  0
   10.4670   42.3610  121.6800 C   0  0  0  0  0  3  0  0  0  0  0  0
    9.6560   42.1170  123.9390 C   0  0  0  0  0  3  0  0  0  0  0  0
    9.4160   42.2940  122.5840 C   0  0  0  0  0  0  0  0  0  0  0  0
    8.1570   42.4060  122.1440 F   0  0  0  0  0  0  0  0  0  0  0  0
   20.3200   34.3490  124.4170 O   0  0  0  0  0  0  0  0  0  0  0  0
   19.7180   33.2950  125.0750 C   0  0  0  0  0  0  0  0  0  0  0  0
   19.3420   33.5340  126.4060 C   0  0  0  0  0  3  0  0  0  0  0  0
   19.4240   32.0740  124.4470 C   0  0  0  0  0  0  0  0  0  0  0  0
   18.7180   32.5050  127.1300 C   0  0  0  0  0  0  0  0  0  0  0  0
   18.8020   31.0400  125.1700 C   0  0  0  0  0  3  0  0  0  0  0  0
   18.2250   32.3470  128.4430 C   0  0  0  0  0  3  0  0  0  0  0  0
   18.4660   31.2820  126.5110 C   0  0  0  0  0  0  0  0  0  0  0  0
   17.6950   31.1410  128.6550 N   0  0  0  0  0  0  0  0  0  0  0  0
   17.8630   30.5100  127.4750 N   0  0  0  0  0  0  0  0  0  0  0  0
   17.3970   29.1500  127.3430 C   0  0  0  0  0  1  0  0  0  0  0  0
   19.7170   31.8350  123.0500 C   0  0  0  0  0  0  0  0  0  0  0  0
   20.9190   31.9670  122.3240 C   0  0  0  0  0  3  0  0  0  0  0  0
   18.8060   31.3650  122.1320 C   0  0  0  0  0  3  0  0  0  0  0  0
   20.7760   31.6170  121.0410 N   0  0  0  0  0  0  0  0  0  0  0  0
   19.4850   31.2570  120.9520 N   0  0  0  0  0  0  0  0  0  0  0  0
   19.1340   30.9420  120.0550 H   0  0  0  0  0  0  0  0  0  0  0  0
  1  7  1  0  0  0  0
  2  3  1  0  0  0  0
  2  1  2  0  0  0  0
  3  4  2  0  0  0  0
  4 30  1  0  0  0  0
  4  5  1  0  0  0  0
  5  6  1  0  0  0  0
  7  5  2  0  0  0  0
  8  1  1  0  0  0  0
  8  9  1  0  0  0  0
  9 10  2  0  0  0  0
 11  8  1  0  0  0  0
 12  9  1  0  0  0  0
 13 14  2  0  0  0  0
 14 16  1  0  0  0  0
 15 13  1  0  0  0  0
 15 17  1  0  0  0  0
 16 12  2  0  0  0  0
 17 12  1  0  0  0  0
 18 17  2  0  0  0  0
 19 13  1  0  0  0  0
 19 20  1  0  0  0  0
 20 22  1  0  0  0  0
 20 21  1  0  0  0  0
 23 15  1  0  0  0  0
 23 25  1  0  0  0  0
 24 23  2  0  0  0  0
 26 24  1  0  0  0  0
 26 28  2  0  0  0  0
 27 25  2  0  0  0  0
 28 27  1  0  0  0  0
 29 28  1  0  0  0  0
 30 31  1  0  0  0  0
 31 32  1  0  0  0  0
 32 34  2  0  0  0  0
 33 31  2  0  0  0  0
 33 35  1  0  0  0  0
 34 36  1  0  0  0  0
 35 37  2  0  0  0  0
 36 38  2  0  0  0  0
 37 34  1  0  0  0  0
 37 39  1  0  0  0  0
 39 38  1  0  0  0  0
 40 39  1  0  0  0  0
 41 33  1  0  0  0  0
 42 41  1  0  0  0  0
 43 41  2  0  0  0  0
 44 42  2  0  0  0  0
 45 44  1  0  0  0  0
 45 43  1  0  0  0  0
 46 45  1  0  0  0  0
M  END
>  <minimizedAffinity>
-7.49323177

>  <CNNscore>
0.484291703

>  <CNNaffinity>
7.78985453

$$$$
