
 OpenBabel08012615333D

 37 41  0  0  0  0  0  0  0  0999 V2000
   17.7970   38.5840  123.2950 N   0  0  0  0  0  0  0  0  0  0  0  0
   18.6970   38.1070  123.2520 H   0  0  0  0  0  0  0  0  0  0  0  0
   16.5810   37.5520  123.8610 S   0  0  0  0  0  0  0  0  0  0  0  0
   16.7590   36.3070  123.1420 O   0  0  0  0  0  0  0  0  0  0  0  0
   16.5560   37.5770  125.3070 O   0  0  0  0  0  0  0  0  0  0  0  0
   15.1030   38.3160  123.2450 C   0  0  0  0  0  0  0  0  0  0  0  0
   12.7720   39.5240  122.2880 C   0  0  0  0  0  0  0  0  0  0  0  0
   13.6750   38.9240  121.4030 C   0  0  0  0  0  3  0  0  0  0  0  0
   13.0500   39.5250  123.6580 C   0  0  0  0  0  3  0  0  0  0  0  0
   14.8450   38.3270  121.8740 C   0  0  0  0  0  3  0  0  0  0  0  0
   14.2180   38.9240  124.1390 C   0  0  0  0  0  3  0  0  0  0  0  0
   11.6690   40.0710  121.6920 O   0  0  0  0  0  0  0  0  0  0  0  0
   11.5730   41.4890  121.6940 C   0  0  0  0  0  1  0  0  0  0  0  0
   17.7790   39.9420  123.7380 C   0  0  0  0  0  0  0  0  0  0  0  0
   16.9480   40.8240  123.0450 C   0  0  0  0  0  3  0  0  0  0  0  0
   18.5230   40.3690  124.8670 C   0  0  0  0  0  0  0  0  0  0  0  0
   16.8270   42.1610  123.4340 C   0  0  0  0  0  0  0  0  0  0  0  0
   19.3600   39.5010  125.6090 C   0  0  0  0  0  3  0  0  0  0  0  0
   18.4140   41.7210  125.2810 C   0  0  0  0  0  0  0  0  0  0  0  0
   17.5710   42.5910  124.5450 C   0  0  0  0  0  0  0  0  0  0  0  0
   20.0680   39.9430  126.7270 C   0  0  0  0  0  3  0  0  0  0  0  0
   19.1290   42.1380  126.4290 C   0  0  0  0  0  3  0  0  0  0  0  0
   19.9500   41.2610  127.1400 C   0  0  0  0  0  3  0  0  0  0  0  0
   15.9290   43.0610  122.6760 C   0  0  0  0  0  0  0  0  0  0  0  0
   16.3580   43.6240  121.4560 C   0  0  0  0  0  0  0  0  0  0  0  0
   14.6410   43.4240  123.1820 C   0  0  0  0  0  0  0  0  0  0  0  0
   15.5830   44.5450  120.7650 C   0  0  0  0  0  3  0  0  0  0  0  0
   14.0900   42.9000  124.3770 C   0  0  0  0  0  3  0  0  0  0  0  0
   13.8540   44.3590  122.4590 C   0  0  0  0  0  0  0  0  0  0  0  0
   14.3380   44.9110  121.2650 C   0  0  0  0  0  3  0  0  0  0  0  0
   12.8290   43.2840  124.8410 C   0  0  0  0  0  3  0  0  0  0  0  0
   12.5890   44.7370  122.9390 C   0  0  0  0  0  3  0  0  0  0  0  0
   12.0800   44.2040  124.1220 C   0  0  0  0  0  3  0  0  0  0  0  0
   17.5590   43.3060  120.8770 O   0  0  0  0  0  0  0  0  0  0  0  0
   17.8110   42.4210  121.1970 H   0  0  0  0  0  0  0  0  0  0  0  0
   17.4270   43.9050  124.9170 O   0  0  0  0  0  0  0  0  0  0  0  0
   18.3070   44.2480  125.1460 H   0  0  0  0  0  0  0  0  0  0  0  0
  1 14  1  0  0  0  0
  1  3  1  0  0  0  0
  2  1  1  0  0  0  0
  3  5  2  0  0  0  0
  4  3  2  0  0  0  0
  6  3  1  0  0  0  0
  6 11  1  0  0  0  0
  7  9  1  0  0  0  0
  8 10  1  0  0  0  0
  8  7  2  0  0  0  0
  9 11  2  0  0  0  0
 10  6  2  0  0  0  0
 12 13  1  0  0  0  0
 12  7  1  0  0  0  0
 14 16  1  0  0  0  0
 15 17  1  0  0  0  0
 15 14  2  0  0  0  0
 16 19  2  0  0  0  0
 16 18  1  0  0  0  0
 17 20  2  0  0  0  0
 18 21  2  0  0  0  0
 19 22  1  0  0  0  0
 20 36  1  0  0  0  0
 20 19  1  0  0  0  0
 21 23  1  0  0  0  0
 22 23  2  0  0  0  0
 24 26  1  0  0  0  0
 24 17  1  0  0  0  0
 25 24  2  0  0  0  0
 26 28  1  0  0  0  0
 27 30  2  0  0  0  0
 27 25  1  0  0  0  0
 28 31  2  0  0  0  0
 29 32  1  0  0  0  0
 29 26  2  0  0  0  0
 30 29  1  0  0  0  0
 32 33  2  0  0  0  0
 33 31  1  0  0  0  0
 34 35  1  0  0  0  0
 34 25  1  0  0  0  0
 36 37  1  0  0  0  0
M  END
>  <minimizedAffinity>
-9.3799448

>  <CNNscore>
0.230570152

>  <CNNaffinity>
5.18453646

$$$$
