
 OpenBabel08012611273D

 24 27  0  0  1  0  0  0  0  0999 V2000
   20.5330   36.2340  125.0570 C   0  0  0  0  0  1  0  0  0  0  0  0
   19.4660   37.1540  124.4680 C   0  0  2  0  0  3  0  0  0  0  0  0
   19.2880   38.4050  125.3350 C   0  0  0  0  0  2  0  0  0  0  0  0
   18.0330   39.1890  125.0120 C   0  0  0  0  0  0  0  0  0  0  0  0
   17.6600   40.1180  125.7240 O   0  0  0  0  0  0  0  0  0  0  0  0
   17.1640   38.7190  123.9050 C   0  0  0  0  0  0  0  0  0  0  0  0
   17.1220   37.3330  123.6670 C   0  0  0  0  0  0  0  0  0  0  0  0
   16.1230   36.8080  122.8390 C   0  0  0  0  0  3  0  0  0  0  0  0
   15.1870   37.6560  122.2460 C   0  0  0  0  0  3  0  0  0  0  0  0
   15.2780   39.0410  122.4330 C   0  0  0  0  0  0  0  0  0  0  0  0
   16.2960   39.5810  123.2210 C   0  0  0  0  0  0  0  0  0  0  0  0
   16.5000   41.0440  123.1840 C   0  0  0  0  0  0  0  0  0  0  0  0
   17.6130   41.5300  123.3410 O   0  0  0  0  0  0  0  0  0  0  0  0
   15.3700   41.9100  122.8060 C   0  0  0  0  0  0  0  0  0  0  0  0
   15.4180   43.2810  123.0880 C   0  0  0  0  0  3  0  0  0  0  0  0
   14.3640   44.1070  122.6960 C   0  0  0  0  0  3  0  0  0  0  0  0
   13.2730   43.5690  122.0120 C   0  0  0  0  0  3  0  0  0  0  0  0
   13.2360   42.2060  121.7220 C   0  0  0  0  0  0  0  0  0  0  0  0
   14.2830   41.3680  122.1230 C   0  0  0  0  0  0  0  0  0  0  0  0
   14.2640   39.9240  121.8200 C   0  0  0  0  0  0  0  0  0  0  0  0
   13.3880   39.4670  121.0920 O   0  0  0  0  0  0  0  0  0  0  0  0
   18.1270   36.4190  124.3230 C   0  0  0  0  0  2  0  0  0  0  0  0
   12.1410   41.7560  121.0360 O   0  0  0  0  0  0  0  0  0  0  0  0
   12.2720   40.8020  120.8400 H   0  0  0  0  0  0  0  0  0  0  0  0
  2  1  1  1  0  0  0
  2  3  1  0  0  0  0
  4  3  1  0  0  0  0
  4  5  2  0  0  0  0
  6  4  1  0  0  0  0
  7  6  1  0  0  0  0
  7 22  1  0  0  0  0
  8  7  2  0  0  0  0
  9 10  2  0  0  0  0
  9  8  1  0  0  0  0
 10 11  1  0  0  0  0
 11  6  2  0  0  0  0
 12 11  1  0  0  0  0
 12 13  2  0  0  0  0
 14 15  1  0  0  0  0
 14 12  1  0  0  0  0
 16 15  2  0  0  0  0
 17 16  1  0  0  0  0
 18 17  2  0  0  0  0
 18 19  1  0  0  0  0
 19 14  2  0  0  0  0
 20 19  1  0  0  0  0
 20 10  1  0  0  0  0
 21 20  2  0  0  0  0
 22  2  1  0  0  0  0
 23 18  1  0  0  0  0
 24 23  1  0  0  0  0
M  END
>  <minimizedAffinity>
-8.52180386

>  <CNNscore>
0.640766799

>  <CNNaffinity>
4.92154646

$$$$
