
 OpenBabel08012605553D

 31 34  0  0  0  0  0  0  0  0999 V2000
   19.7700   32.3940  126.4180 C   0  0  0  0  0  0  0  0  0  0  0  0
   20.2920   31.7510  125.3000 C   0  0  0  0  0  3  0  0  0  0  0  0
   20.2890   32.2830  124.0520 N   0  0  0  0  0  0  0  0  0  0  0  0
   19.7410   33.5130  123.9100 C   0  0  0  0  0  3  0  0  0  0  0  0
   19.1910   34.2440  124.9580 C   0  0  0  0  0  0  0  0  0  0  0  0
   19.2120   33.6630  126.2320 C   0  0  0  0  0  3  0  0  0  0  0  0
   19.7620   31.8620  127.7180 N   0  0  0  0  0  0  0  0  0  0  0  0
   18.9180   30.8980  128.2370 C   0  0  0  0  0  0  0  0  0  0  0  0
   18.0040   30.3370  127.6440 O   0  0  0  0  0  0  0  0  0  0  0  0
   20.4570   32.1860  128.3920 H   0  0  0  0  0  0  0  0  0  0  0  0
   19.2130   30.6090  129.7150 C   0  0  0  0  0  2  0  0  0  0  0  0
   20.4680   29.8340  129.8670 N   0  0  0  0  0  0  0  0  0  0  0  0
   20.6690   29.7610  130.8660 H   0  0  0  0  0  0  0  0  0  0  0  0
   20.2770   28.8730  129.5710 H   0  0  0  0  0  0  0  0  0  0  0  0
   18.6230   35.5750  124.6670 C   0  0  0  0  0  0  0  0  0  0  0  0
   17.5970   35.7540  123.8920 N   0  0  0  0  0  0  0  0  0  0  0  0
   19.3200   37.0270  125.3640 S   0  0  0  0  0  0  0  0  0  0  0  0
   17.3080   37.0960  123.8180 N   0  0  0  0  0  0  0  0  0  0  0  0
   18.1060   37.9400  124.5280 C   0  0  0  0  0  0  0  0  0  0  0  0
   16.2730   37.5860  123.0640 C   0  0  0  0  0  0  0  0  0  0  0  0
   18.0030   39.2200  124.5880 N   0  0  0  0  0  0  0  0  0  0  0  0
   15.4900   36.9340  122.3790 O   0  0  0  0  0  0  0  0  0  0  0  0
   16.1410   39.0570  123.1260 C   0  0  0  0  0  3  0  0  0  0  0  0
   16.9800   39.8100  123.8680 C   0  0  0  0  0  0  0  0  0  0  0  0
   16.8390   41.2030  123.9130 N   0  0  0  0  0  0  0  0  0  0  0  0
   16.7930   42.0000  125.1570 C   0  0  0  0  0  2  0  0  0  0  0  0
   16.8660   42.0040  122.6670 C   0  0  0  0  0  2  0  0  0  0  0  0
   17.2150   43.4690  124.9300 C   0  0  0  0  0  2  0  0  0  0  0  0
   16.0260   43.2910  122.8180 C   0  0  0  0  0  2  0  0  0  0  0  0
   16.4430   44.1940  123.9080 N   0  0  0  0  0  0  0  0  0  0  0  0
   15.6050   44.5920  124.3310 H   0  0  0  0  0  0  0  0  0  0  0  0
  1  7  1  0  0  0  0
  2  1  2  0  0  0  0
  3  2  1  0  0  0  0
  4  3  2  0  0  0  0
  4  5  1  0  0  0  0
  5  6  2  0  0  0  0
  6  1  1  0  0  0  0
  7  8  1  0  0  0  0
  7 10  1  0  0  0  0
  8 11  1  0  0  0  0
  9  8  2  0  0  0  0
 11 12  1  0  0  0  0
 12 13  1  0  0  0  0
 14 12  1  0  0  0  0
 15  5  1  0  0  0  0
 15 17  1  0  0  0  0
 16 15  2  0  0  0  0
 18 16  1  0  0  0  0
 18 19  1  0  0  0  0
 19 21  2  0  0  0  0
 19 17  1  0  0  0  0
 20 23  1  0  0  0  0
 20 18  1  0  0  0  0
 22 20  2  0  0  0  0
 23 24  2  0  0  0  0
 24 25  1  0  0  0  0
 24 21  1  0  0  0  0
 25 26  1  0  0  0  0
 27 29  1  0  0  0  0
 27 25  1  0  0  0  0
 28 26  1  0  0  0  0
 29 30  1  0  0  0  0
 30 31  1  0  0  0  0
 30 28  1  0  0  0  0
M  END
>  <minimizedAffinity>
-8.59643173

>  <CNNscore>
0.638755322

>  <CNNaffinity>
6.44632673

$$$$
