
 OpenBabel08012611323D

 36 40  0  0  1  0  0  0  0  0999 V2000
   18.4290   39.6890  124.0900 N   0  0  0  0  0  0  0  0  0  0  0  0
   18.1740   38.3840  123.4520 C   0  0  0  0  0  2  0  0  0  0  0  0
   18.0450   37.2010  124.4390 C   0  0  0  0  0  2  0  0  0  0  0  0
   19.1810   37.0540  125.3710 N   0  0  0  0  0  0  0  0  0  0  0  0
   19.9160   38.3160  125.5600 C   0  0  0  0  0  2  0  0  0  0  0  0
   18.9990   39.5530  125.4400 C   0  0  0  0  0  2  0  0  0  0  0  0
   17.2860   40.6220  124.0320 C   0  0  0  0  0  2  0  0  0  0  0  0
   15.9710   40.1530  123.3410 C   0  0  1  0  0  3  0  0  0  0  0  0
   15.1710   39.2340  124.2620 C   0  0  0  0  0  0  0  0  0  0  0  0
   14.2190   38.3110  123.7550 C   0  0  0  0  0  0  0  0  0  0  0  0
   13.5390   37.5120  124.6750 C   0  0  0  0  0  0  0  0  0  0  0  0
   15.4230   39.2870  125.6590 C   0  0  0  0  0  3  0  0  0  0  0  0
   13.7990   37.6020  126.0290 C   0  0  0  0  0  0  0  0  0  0  0  0
   12.4930   36.4820  124.4710 C   0  0  0  0  0  2  0  0  0  0  0  0
   14.7330   38.4710  126.5540 C   0  0  0  0  0  3  0  0  0  0  0  0
   12.9530   36.6580  126.7450 C   0  0  0  0  0  0  0  0  0  0  0  0
   12.1970   36.0200  125.8040 O   0  0  0  0  0  0  0  0  0  0  0  0
   12.9230   36.4780  127.9460 O   0  0  0  0  0  0  0  0  0  0  0  0
   13.9260   38.1980  122.2860 C   0  0  0  0  0  1  0  0  0  0  0  0
   15.1550   41.2720  122.9750 O   0  0  0  0  0  0  0  0  0  0  0  0
   14.2740   40.9190  122.7580 H   0  0  0  0  0  0  0  0  0  0  0  0
   20.0630   35.9100  125.0680 C   0  0  0  0  0  2  0  0  0  0  0  0
   19.4430   34.6400  124.4170 C   0  0  2  0  0  3  0  0  0  0  0  0
   18.0650   34.8520  124.0870 O   0  0  0  0  0  0  0  0  0  0  0  0
   17.6840   33.9780  123.8910 H   0  0  0  0  0  0  0  0  0  0  0  0
   19.5500   33.4370  125.3530 C   0  0  0  0  0  0  0  0  0  0  0  0
   20.5730   32.4810  125.1140 C   0  0  0  0  0  3  0  0  0  0  0  0
   18.6400   33.2390  126.4240 C   0  0  0  0  0  0  0  0  0  0  0  0
   20.7220   31.3580  125.9260 C   0  0  0  0  0  3  0  0  0  0  0  0
   18.8180   32.1100  127.2240 C   0  0  0  0  0  0  0  0  0  0  0  0
   19.8330   31.2080  126.9700 C   0  0  0  0  0  0  0  0  0  0  0  0
   18.0600   31.6350  128.4050 C   0  0  0  0  0  2  0  0  0  0  0  0
   19.7810   30.1350  127.9540 C   0  0  0  0  0  0  0  0  0  0  0  0
   18.7320   30.4160  128.7810 O   0  0  0  0  0  0  0  0  0  0  0  0
   20.5270   29.1790  128.0240 O   0  0  0  0  0  0  0  0  0  0  0  0
   17.5290   34.2090  126.7110 C   0  0  0  0  0  1  0  0  0  0  0  0
  1  6  1  0  0  0  0
  2  1  1  0  0  0  0
  2  3  1  0  0  0  0
  3  4  1  0  0  0  0
  4  5  1  0  0  0  0
  6  5  1  0  0  0  0
  7  1  1  0  0  0  0
  8  7  1  1  0  0  0
  8  9  1  0  0  0  0
  9 12  1  0  0  0  0
 10  9  2  0  0  0  0
 10 11  1  0  0  0  0
 11 13  2  0  0  0  0
 12 15  2  0  0  0  0
 13 15  1  0  0  0  0
 13 16  1  0  0  0  0
 14 11  1  0  0  0  0
 14 17  1  0  0  0  0
 16 18  2  0  0  0  0
 17 16  1  0  0  0  0
 19 10  1  0  0  0  0
 20  8  1  0  0  0  0
 21 20  1  0  0  0  0
 22  4  1  0  0  0  0
 23 22  1  1  0  0  0
 23 26  1  0  0  0  0
 24 23  1  0  0  0  0
 25 24  1  0  0  0  0
 26 28  1  0  0  0  0
 27 26  2  0  0  0  0
 27 29  1  0  0  0  0
 28 36  1  0  0  0  0
 28 30  2  0  0  0  0
 29 31  2  0  0  0  0
 30 32  1  0  0  0  0
 31 30  1  0  0  0  0
 31 33  1  0  0  0  0
 32 34  1  0  0  0  0
 33 35  2  0  0  0  0
 33 34  1  0  0  0  0
M  END
>  <minimizedAffinity>
-10.0910263

>  <CNNscore>
0.543070257

>  <CNNaffinity>
6.81452703

$$$$
