
 OpenBabel08012611193D

 33 37  0  0  1  0  0  0  0  0999 V2000
   13.0650   37.0830  124.6250 C   0  0  0  0  0  0  0  0  0  0  0  0
   12.0200   36.5360  125.3920 C   0  0  0  0  0  3  0  0  0  0  0  0
   12.4560   35.7730  126.3970 N   0  0  0  0  0  0  0  0  0  0  0  0
   13.8080   35.8200  126.2870 N   0  0  0  0  0  0  0  0  0  0  0  0
   14.7440   35.2020  127.1010 C   0  0  0  0  0  3  0  0  0  0  0  0
   16.0530   35.3520  126.8580 C   0  0  0  0  0  3  0  0  0  0  0  0
   16.4460   36.2090  125.6750 C   0  0  0  0  0  0  0  0  0  0  0  0
   15.5420   36.7860  124.9140 N   0  0  0  0  0  0  0  0  0  0  0  0
   14.2200   36.6040  125.2100 C   0  0  0  0  0  0  0  0  0  0  0  0
   13.0280   37.9480  123.4910 C   0  0  0  0  0  3  0  0  0  0  0  0
   14.0970   38.3820  122.8040 C   0  0  0  0  0  3  0  0  0  0  0  0
   13.9090   39.2900  121.6410 C   0  0  0  0  0  0  0  0  0  0  0  0
   13.8040   38.8370  120.5040 O   0  0  0  0  0  0  0  0  0  0  0  0
   13.8420   40.6450  121.9190 N   0  0  0  0  0  0  0  0  0  0  0  0
   14.1570   41.2680  123.2110 C   0  0  0  0  0  2  0  0  0  0  0  0
   13.5760   41.5700  120.8140 C   0  0  0  0  0  2  0  0  0  0  0  0
   14.5170   42.7580  123.0830 C   0  0  0  0  0  2  0  0  0  0  0  0
   12.8450   42.8340  121.2970 C   0  0  0  0  0  2  0  0  0  0  0  0
   13.5190   43.5770  122.3810 N   0  0  0  0  0  0  0  0  0  0  0  0
   12.8100   43.9050  123.0390 H   0  0  0  0  0  0  0  0  0  0  0  0
   17.7840   36.4120  125.3740 N   0  0  0  0  0  0  0  0  0  0  0  0
   18.3070   37.4820  124.5300 C   0  0  0  0  0  2  0  0  0  0  0  0
   18.8640   35.7950  126.1690 C   0  0  2  0  0  3  0  0  0  0  0  0
   19.8150   37.2790  124.5400 C   0  0  0  0  0  2  0  0  0  0  0  0
   20.0660   36.7250  125.9320 C   0  0  0  0  0  2  0  0  0  0  0  0
   19.1620   34.3660  125.7590 C   0  0  0  0  0  0  0  0  0  0  0  0
   18.7140   33.2410  126.4690 C   0  0  0  0  0  3  0  0  0  0  0  0
   19.9350   34.1480  124.6080 C   0  0  0  0  0  0  0  0  0  0  0  0
   19.0400   31.9590  126.0320 C   0  0  0  0  0  0  0  0  0  0  0  0
   20.2600   32.8640  124.1730 C   0  0  0  0  0  3  0  0  0  0  0  0
   19.8090   31.7600  124.8910 C   0  0  0  0  0  3  0  0  0  0  0  0
   20.3670   35.1950  123.8910 F   0  0  0  0  0  0  0  0  0  0  0  0
   18.6040   30.8970  126.7240 F   0  0  0  0  0  0  0  0  0  0  0  0
  1  9  2  0  0  0  0
  1  2  1  0  0  0  0
  2  3  2  0  0  0  0
  4  3  1  0  0  0  0
  4  5  1  0  0  0  0
  6  5  2  0  0  0  0
  7  6  1  0  0  0  0
  8  9  1  0  0  0  0
  8  7  2  0  0  0  0
  9  4  1  0  0  0  0
 10  1  1  0  0  0  0
 11 10  2  0  0  0  0
 12 14  1  0  0  0  0
 12 11  1  0  0  0  0
 13 12  2  0  0  0  0
 14 15  1  0  0  0  0
 16 18  1  0  0  0  0
 16 14  1  0  0  0  0
 17 15  1  0  0  0  0
 18 19  1  0  0  0  0
 19 20  1  0  0  0  0
 19 17  1  0  0  0  0
 21  7  1  0  0  0  0
 21 23  1  0  0  0  0
 22 24  1  0  0  0  0
 22 21  1  0  0  0  0
 23 26  1  6  0  0  0
 24 25  1  0  0  0  0
 25 23  1  0  0  0  0
 26 27  1  0  0  0  0
 28 26  2  0  0  0  0
 29 27  2  0  0  0  0
 29 33  1  0  0  0  0
 30 28  1  0  0  0  0
 30 31  2  0  0  0  0
 31 29  1  0  0  0  0
 32 28  1  0  0  0  0
M  END
>  <minimizedAffinity>
-9.88729477

>  <CNNscore>
0.154697001

>  <CNNaffinity>
6.29246521

$$$$
