
 OpenBabel08012607313D

 46 50  0  0  0  0  0  0  0  0999 V2000
   15.5160   36.9500  125.2150 C   0  0  0  0  0  0  0  0  0  0  0  0
   14.2730   36.7590  124.6380 C   0  0  0  0  0  3  0  0  0  0  0  0
   13.6650   37.9680  124.1930 C   0  0  0  0  0  0  0  0  0  0  0  0
   12.4440   38.0470  123.5990 N   0  0  0  0  0  0  0  0  0  0  0  0
   12.0340   39.2880  123.2710 C   0  0  0  0  0  3  0  0  0  0  0  0
   12.7550   40.4490  123.4790 C   0  0  0  0  0  3  0  0  0  0  0  0
   14.0160   40.3550  124.0640 C   0  0  0  0  0  0  0  0  0  0  0  0
   14.4650   39.0800  124.4440 C   0  0  0  0  0  0  0  0  0  0  0  0
   15.9290   38.6190  125.2110 S   0  0  0  0  0  0  0  0  0  0  0  0
   16.4300   35.9570  125.7970 C   0  0  0  0  0  0  0  0  0  0  0  0
   18.2190   34.0940  126.7810 C   0  0  0  0  0  0  0  0  0  0  0  0
   17.0090   34.3110  127.4450 C   0  0  0  0  0  3  0  0  0  0  0  0
   18.4560   34.8520  125.6400 C   0  0  0  0  0  3  0  0  0  0  0  0
   16.1020   35.2460  126.9480 C   0  0  0  0  0  3  0  0  0  0  0  0
   17.5960   35.7670  125.1370 N   0  0  0  0  0  0  0  0  0  0  0  0
   19.2370   33.1040  127.2780 C   0  0  0  0  0  2  0  0  0  0  0  0
   19.1750   31.7960  126.6300 N   0  0  0  0  0  0  0  0  0  0  0  0
   18.9880   31.9010  125.6310 H   0  0  0  0  0  0  0  0  0  0  0  0
   20.4130   31.0190  126.7760 C   0  0  0  0  0  2  0  0  0  0  0  0
   20.2270   29.9180  127.8280 C   0  0  0  0  0  2  0  0  0  0  0  0
   19.1510   30.2790  128.7050 O   0  0  0  0  0  0  0  0  0  0  0  0
   19.6370   30.7040  129.9720 C   0  0  0  0  0  1  0  0  0  0  0  0
   14.7750   41.4700  124.3570 O   0  0  0  0  0  0  0  0  0  0  0  0
   14.3060   42.6820  123.9080 C   0  0  0  0  0  0  0  0  0  0  0  0
   13.6660   42.8260  122.6780 C   0  0  0  0  0  3  0  0  0  0  0  0
   14.5460   43.8070  124.6940 C   0  0  0  0  0  0  0  0  0  0  0  0
   13.2410   44.0940  122.2640 C   0  0  0  0  0  3  0  0  0  0  0  0
   14.1240   45.0700  124.2860 C   0  0  0  0  0  3  0  0  0  0  0  0
   13.4800   45.2270  123.0570 C   0  0  0  0  0  0  0  0  0  0  0  0
   15.1640   43.6880  125.8780 F   0  0  0  0  0  0  0  0  0  0  0  0
   12.9900   46.4630  122.5840 N   0  0  0  0  0  0  0  0  0  0  0  0
   11.7150   46.8960  122.4160 C   0  0  0  0  0  0  0  0  0  0  0  0
   11.3830   48.0100  121.2150 S   0  0  0  0  0  0  0  0  0  0  0  0
   10.6950   46.4570  123.2000 N   0  0  0  0  0  0  0  0  0  0  0  0
   10.7460   46.3450  124.5870 C   0  0  0  0  0  0  0  0  0  0  0  0
   11.7530   46.5080  125.2730 O   0  0  0  0  0  0  0  0  0  0  0  0
   13.6830   47.0730  122.1620 H   0  0  0  0  0  0  0  0  0  0  0  0
    9.7950   46.7600  122.8480 H   0  0  0  0  0  0  0  0  0  0  0  0
    9.4320   45.9170  125.2270 C   0  0  0  0  0  2  0  0  0  0  0  0
    8.9510   44.5430  124.8190 C   0  0  0  0  0  0  0  0  0  0  0  0
    7.5770   44.2590  124.7530 C   0  0  0  0  0  3  0  0  0  0  0  0
    9.8770   43.5330  124.5120 C   0  0  0  0  0  3  0  0  0  0  0  0
    7.1400   42.9840  124.3910 C   0  0  0  0  0  3  0  0  0  0  0  0
    9.4350   42.2610  124.1490 C   0  0  0  0  0  3  0  0  0  0  0  0
    8.0720   41.9970  124.0920 C   0  0  0  0  0  0  0  0  0  0  0  0
    7.6480   40.7750  123.7430 F   0  0  0  0  0  0  0  0  0  0  0  0
  1 10  1  0  0  0  0
  2  1  2  0  0  0  0
  3  8  1  0  0  0  0
  3  2  1  0  0  0  0
  4  3  2  0  0  0  0
  5  6  2  0  0  0  0
  5  4  1  0  0  0  0
  6  7  1  0  0  0  0
  7 23  1  0  0  0  0
  7  8  2  0  0  0  0
  8  9  1  0  0  0  0
  9  1  1  0  0  0  0
 10 14  1  0  0  0  0
 11 16  1  0  0  0  0
 11 12  1  0  0  0  0
 13 11  2  0  0  0  0
 14 12  2  0  0  0  0
 15 13  1  0  0  0  0
 15 10  2  0  0  0  0
 17 19  1  0  0  0  0
 17 16  1  0  0  0  0
 18 17  1  0  0  0  0
 19 20  1  0  0  0  0
 20 21  1  0  0  0  0
 21 22  1  0  0  0  0
 24 23  1  0  0  0  0
 24 26  1  0  0  0  0
 25 24  2  0  0  0  0
 26 30  1  0  0  0  0
 27 25  1  0  0  0  0
 27 29  2  0  0  0  0
 28 26  2  0  0  0  0
 29 28  1  0  0  0  0
 31 29  1  0  0  0  0
 32 31  1  0  0  0  0
 32 34  1  0  0  0  0
 33 32  2  0  0  0  0
 34 35  1  0  0  0  0
 35 39  1  0  0  0  0
 35 36  2  0  0  0  0
 37 31  1  0  0  0  0
 38 34  1  0  0  0  0
 40 39  1  0  0  0  0
 41 40  1  0  0  0  0
 42 40  2  0  0  0  0
 43 41  2  0  0  0  0
 44 42  1  0  0  0  0
 45 44  2  0  0  0  0
 45 43  1  0  0  0  0
 46 45  1  0  0  0  0
M  END
>  <minimizedAffinity>
-8.49901772

>  <CNNscore>
0.0622337423

>  <CNNaffinity>
5.36716223

$$$$
