
 OpenBabel08012612193D

 30 33  0  0  1  0  0  0  0  0999 V2000
   18.1220   35.8150  124.2830 C   0  0  0  0  0  1  0  0  0  0  0  0
   17.3070   36.5300  125.3740 C   0  0  2  0  0  3  0  0  0  0  0  0
   15.8930   35.9060  125.4750 C   0  0  0  0  0  2  0  0  0  0  0  0
   15.4740   35.5480  126.9040 C   0  0  0  0  0  2  0  0  0  0  0  0
   14.0740   35.9710  127.3560 C   0  0  0  0  0  0  0  0  0  0  0  0
   13.1320   35.4910  126.6630 O   0  0  0  0  0  0  0  0  0  0  0  0
   14.0230   36.7290  128.3650 O   0  0  0  0  0  1  0  0  0  0  0  0
   17.3390   38.0610  125.1030 C   0  0  1  0  0  3  0  0  0  0  0  0
   18.6260   38.6400  124.4680 C   0  0  0  0  0  2  0  0  0  0  0  0
   16.2030   38.6760  124.2360 C   0  0  1  0  0  0  0  0  0  0  0  0
   18.2050   39.9450  123.7620 C   0  0  0  0  0  2  0  0  0  0  0  0
   14.8360   38.7420  124.9380 C   0  0  0  0  0  2  0  0  0  0  0  0
   16.7330   40.1230  124.1320 C   0  0  1  0  0  3  0  0  0  0  0  0
   13.8520   39.6360  124.1660 C   0  0  0  0  0  2  0  0  0  0  0  0
   15.8530   41.0480  123.2770 C   0  0  1  0  0  3  0  0  0  0  0  0
   14.4030   41.0510  123.8390 C   0  0  1  0  0  3  0  0  0  0  0  0
   16.4330   42.4840  123.2710 C   0  0  2  0  0  3  0  0  0  0  0  0
   13.4260   41.9280  122.9450 C   0  0  1  0  0  0  0  0  0  0  0  0
   15.3730   43.5780  123.0880 C   0  0  0  0  0  2  0  0  0  0  0  0
   12.3340   42.5160  123.8860 C   0  0  0  0  0  2  0  0  0  0  0  0
   14.2180   43.0680  122.2150 C   0  0  2  0  0  3  0  0  0  0  0  0
   11.4560   43.5850  123.2420 C   0  0  0  0  0  2  0  0  0  0  0  0
   13.3310   44.2170  121.6890 C   0  0  0  0  0  2  0  0  0  0  0  0
   12.2880   44.7280  122.6750 C   0  0  2  0  0  3  0  0  0  0  0  0
   16.0600   37.9730  122.8680 C   0  0  0  0  0  1  0  0  0  0  0  0
   12.7350   41.0770  121.8510 C   0  0  0  0  0  1  0  0  0  0  0  0
   17.3820   42.5730  122.2030 O   0  0  0  0  0  0  0  0  0  0  0  0
   17.8280   43.4330  122.2860 H   0  0  0  0  0  0  0  0  0  0  0  0
   12.9380   45.4410  123.7250 O   0  0  0  0  0  0  0  0  0  0  0  0
   12.2530   45.7230  124.3540 H   0  0  0  0  0  0  0  0  0  0  0  0
  2  1  1  6  0  0  0
  2  3  1  0  0  0  0
  3  4  1  0  0  0  0
  4  5  1  0  0  0  0
  5  7  1  0  0  0  0
  6  5  2  0  0  0  0
  8  2  1  6  0  0  0
  9  8  1  0  0  0  0
 10 25  1  6  0  0  0
 10 12  1  0  0  0  0
 10  8  1  0  0  0  0
 11  9  1  0  0  0  0
 13 11  1  6  0  0  0
 13 10  1  0  0  0  0
 14 12  1  0  0  0  0
 15 16  1  0  0  0  0
 15 13  1  0  0  0  0
 16 14  1  0  0  0  0
 17 15  1  0  0  0  0
 18 16  1  0  0  0  0
 18 20  1  0  0  0  0
 19 17  1  0  0  0  0
 21 18  1  0  0  0  0
 21 19  1  0  0  0  0
 22 20  1  0  0  0  0
 23 21  1  0  0  0  0
 23 24  1  0  0  0  0
 24 22  1  0  0  0  0
 24 29  1  0  0  0  0
 26 18  1  0  0  0  0
 27 28  1  0  0  0  0
 27 17  1  0  0  0  0
 29 30  1  0  0  0  0
M  END
>  <minimizedAffinity>
-8.29185104

>  <CNNscore>
0.729983032

>  <CNNaffinity>
6.21862841

$$$$
