
 OpenBabel08012616023D

 51 57  0  0  1  0  0  0  0  0999 V2000
   18.5960   37.3580  123.9800 O   0  0  0  0  0  0  0  0  0  0  0  0
   19.2650   38.6240  124.0230 C   0  0  0  0  0  2  0  0  0  0  0  0
   19.2170   39.1620  125.4490 C   0  0  0  0  0  0  0  0  0  0  0  0
   19.9070   38.6700  126.3480 O   0  0  0  0  0  0  0  0  0  0  0  0
   18.2810   40.3700  125.7110 C   0  0  2  0  0  0  0  0  0  0  0  0
   13.8590   44.3400  124.3940 C   0  0  0  0  0  0  0  0  0  0  0  0
   15.1020   43.8250  124.3140 C   0  0  0  0  0  3  0  0  0  0  0  0
   12.6610   43.4860  124.2820 C   0  0  0  0  0  0  0  0  0  0  0  0
   15.4290   42.3630  124.1470 C   0  0  2  0  0  3  0  0  0  0  0  0
   11.4150   43.9780  124.5050 C   0  0  0  0  0  3  0  0  0  0  0  0
   12.9010   41.9930  123.8250 C   0  0  1  0  0  0  0  0  0  0  0  0
   14.2080   41.4790  124.5280 C   0  0  1  0  0  3  0  0  0  0  0  0
   16.6200   41.9240  125.0130 C   0  0  1  0  0  3  0  0  0  0  0  0
   10.3140   43.1030  124.3470 C   0  0  0  0  0  0  0  0  0  0  0  0
   11.7070   41.0430  124.2070 C   0  0  0  0  0  2  0  0  0  0  0  0
   14.5220   39.9600  124.4170 C   0  0  2  0  0  3  0  0  0  0  0  0
   17.0400   40.4510  124.7600 C   0  0  2  0  0  0  0  0  0  0  0  0
   17.9330   42.7090  124.9310 C   0  0  0  0  0  2  0  0  0  0  0  0
    8.9660   43.4280  124.2770 N   0  0  0  0  0  0  0  0  0  0  0  0
   10.4080   41.7490  124.1290 C   0  0  0  0  0  0  0  0  0  0  0  0
   15.8350   39.5570  125.1310 C   0  0  0  0  0  2  0  0  0  0  0  0
   19.0240   41.7200  125.4110 C   0  0  1  0  0  3  0  0  0  0  0  0
    8.2480   42.3500  123.8240 N   0  0  0  0  0  0  0  0  0  0  0  0
    9.1160   41.3380  123.8040 C   0  0  0  0  0  3  0  0  0  0  0  0
   13.6960   45.8340  124.5470 C   0  0  0  0  0  1  0  0  0  0  0  0
   12.9970   42.0220  122.2750 C   0  0  0  0  0  1  0  0  0  0  0  0
   17.4660   40.1780  123.2900 C   0  0  0  0  0  1  0  0  0  0  0  0
   19.8690   42.2770  126.5540 C   0  0  0  0  0  1  0  0  0  0  0  0
   14.5600   39.5410  123.0630 O   0  0  0  0  0  0  0  0  0  0  0  0
   14.6640   38.5740  123.0490 H   0  0  0  0  0  0  0  0  0  0  0  0
    8.2670   44.6280  124.6040 C   0  0  0  0  0  0  0  0  0  0  0  0
    7.0040   44.8530  124.0330 C   0  0  0  0  0  3  0  0  0  0  0  0
    8.7770   45.5600  125.5160 C   0  0  0  0  0  3  0  0  0  0  0  0
    6.2900   46.0150  124.3300 C   0  0  0  0  0  3  0  0  0  0  0  0
    8.0560   46.7230  125.8110 C   0  0  0  0  0  3  0  0  0  0  0  0
    6.8200   46.9530  125.2130 C   0  0  0  0  0  3  0  0  0  0  0  0
   17.8350   40.3120  127.0700 O   0  0  0  0  0  0  0  0  0  0  0  0
   17.7850   41.2070  127.4390 H   0  0  0  0  0  0  0  0  0  0  0  0
   19.2990   36.3250  124.4950 C   0  0  0  0  0  0  0  0  0  0  0  0
   20.4320   36.0020  124.1750 O   0  0  0  0  0  0  0  0  0  0  0  0
   18.4940   35.6070  125.5210 C   0  0  0  0  0  0  0  0  0  0  0  0
   19.0410   34.6040  126.3380 C   0  0  0  0  0  3  0  0  0  0  0  0
   17.1480   35.9610  125.6740 C   0  0  0  0  0  3  0  0  0  0  0  0
   18.2520   33.9620  127.2960 C   0  0  0  0  0  3  0  0  0  0  0  0
   16.3700   35.3150  126.6400 C   0  0  0  0  0  0  0  0  0  0  0  0
   16.9120   34.3140  127.4510 C   0  0  0  0  0  3  0  0  0  0  0  0
   14.6640   35.7590  126.8080 S   0  0  0  0  0  0  0  0  0  0  0  0
   13.9730   35.3590  125.6020 O   0  0  0  0  0  1  0  0  0  0  0  0
   14.2300   35.3420  128.1210 O   0  0  0  0  0  1  0  0  0  0  0  0
   14.6660   37.3710  126.7630 O   0  0  0  0  0  0  0  0  0  0  0  0
   14.1040   37.6450  126.0070 H   0  0  0  0  0  0  0  0  0  0  0  0
  1  2  1  0  0  0  0
  1 39  1  0  0  0  0
  2  3  1  0  0  0  0
  3  4  2  0  0  0  0
  5  3  1  6  0  0  0
  5 37  1  0  0  0  0
  6 25  1  0  0  0  0
  7  6  2  0  0  0  0
  8  6  1  0  0  0  0
  8 10  2  0  0  0  0
  9  7  1  1  0  0  0
  9 12  1  0  0  0  0
  9 13  1  0  0  0  0
 11 26  1  6  0  0  0
 11 15  1  0  0  0  0
 11  8  1  0  0  0  0
 11 12  1  0  0  0  0
 14 10  1  0  0  0  0
 16 12  1  0  0  0  0
 16 21  1  0  0  0  0
 17 13  1  0  0  0  0
 17 21  1  0  0  0  0
 17  5  1  0  0  0  0
 18 13  1  0  0  0  0
 18 22  1  0  0  0  0
 19 14  1  0  0  0  0
 19 31  1  0  0  0  0
 20 15  1  0  0  0  0
 20 14  2  0  0  0  0
 22  5  1  0  0  0  0
 22 28  1  0  0  0  0
 23 19  1  0  0  0  0
 24 23  2  0  0  0  0
 24 20  1  0  0  0  0
 27 17  1  0  0  0  0
 29 16  1  0  0  0  0
 30 29  1  0  0  0  0
 31 33  1  0  0  0  0
 32 34  1  0  0  0  0
 32 31  2  0  0  0  0
 33 35  2  0  0  0  0
 34 36  2  0  0  0  0
 36 35  1  0  0  0  0
 37 38  1  0  0  0  0
 39 41  1  0  0  0  0
 40 39  2  0  0  0  0
 41 43  2  0  0  0  0
 41 42  1  0  0  0  0
 42 44  2  0  0  0  0
 43 45  1  0  0  0  0
 44 46  1  0  0  0  0
 45 47  1  0  0  0  0
 45 46  2  0  0  0  0
 47 49  1  0  0  0  0
 48 47  1  0  0  0  0
 50 47  1  0  0  0  0
 51 50  1  0  0  0  0
M  END
>  <minimizedAffinity>
-11.7503986

>  <CNNscore>
0.620549738

>  <CNNaffinity>
6.89034081

$$$$
