
 OpenBabel08012619283D

 24 26  0  0  0  0  0  0  0  0999 V2000
   14.8650   39.9160  123.2060 N   0  0  0  0  0  0  0  0  0  0  0  0
   16.0780   40.5540  123.4070 C   0  0  0  0  0  0  0  0  0  0  0  0
   15.8820   41.7930  123.8140 N   0  0  0  0  0  0  0  0  0  0  0  0
   14.5330   41.9800  123.9020 C   0  0  0  0  0  0  0  0  0  0  0  0
   13.7740   43.0920  124.2870 C   0  0  0  0  0  0  0  0  0  0  0  0
   12.3750   43.0740  124.3140 C   0  0  0  0  0  0  0  0  0  0  0  0
   11.3910   44.6170  124.8510 Br  0  0  0  0  0  0  0  0  0  0  0  0
   11.7320   41.8880  123.9370 C   0  0  0  0  0  0  0  0  0  0  0  0
    9.8340   41.7030  123.9220 Br  0  0  0  0  0  0  0  0  0  0  0  0
   12.4580   40.7470  123.5410 C   0  0  0  0  0  3  0  0  0  0  0  0
   13.8620   40.8200  123.5310 C   0  0  0  0  0  0  0  0  0  0  0  0
   14.6110   38.5480  122.7530 C   0  0  0  0  0  3  0  0  0  0  0  0
   13.8110   37.7060  123.7480 C   0  0  0  0  0  1  0  0  0  0  0  0
   14.0430   38.4950  121.3360 C   0  0  0  0  0  1  0  0  0  0  0  0
   17.4490   39.9570  123.1940 C   0  0  0  0  0  3  0  0  0  0  0  0
   18.5210   40.7250  123.9850 C   0  0  0  0  0  2  0  0  0  0  0  0
   17.4800   38.4570  123.5320 C   0  0  0  0  0  2  0  0  0  0  0  0
   18.5720   40.3270  125.4600 C   0  0  0  0  0  2  0  0  0  0  0  0
   17.6090   38.1720  125.0290 C   0  0  0  0  0  2  0  0  0  0  0  0
   18.7450   38.8840  125.6170 N   0  0  0  0  0  0  0  0  0  0  0  0
   19.6070   38.5870  125.1630 H   0  0  0  0  0  0  0  0  0  0  0  0
   14.5250   44.2540  124.6570 N   0  0  0  0  0  0  0  0  0  0  0  0
   14.8250   45.0410  123.7490 O   0  0  0  0  0  0  0  0  0  0  0  0
   14.8570   44.3510  125.8470 O   0  0  0  0  0  0  0  0  0  0  0  0
  1  2  1  0  0  0  0
  1 11  1  0  0  0  0
  2  3  2  0  0  0  0
  3  4  1  0  0  0  0
  4  5  1  0  0  0  0
  5  6  2  0  0  0  0
  5 22  1  0  0  0  0
  6  7  1  0  0  0  0
  8  6  1  0  0  0  0
  9  8  1  0  0  0  0
 10  8  2  0  0  0  0
 11 10  1  0  0  0  0
 11  4  2  0  0  0  0
 12  1  1  0  0  0  0
 12 13  1  0  0  0  0
 14 12  1  0  0  0  0
 15  2  1  0  0  0  0
 15 17  1  0  0  0  0
 15 16  1  0  0  0  0
 16 18  1  0  0  0  0
 17 19  1  0  0  0  0
 18 20  1  0  0  0  0
 19 20  1  0  0  0  0
 21 20  1  0  0  0  0
 22 24  2  0  0  0  0
 23 22  2  0  0  0  0
M  END
>  <minimizedAffinity>
-6.13366175

>  <CNNscore>
0.299783707

>  <CNNaffinity>
5.07931662

$$$$
