
 OpenBabel08012612283D

 26 28  0  0  0  0  0  0  0  0999 V2000
   16.2110   35.7390  127.0550 N   0  0  0  0  0  0  0  0  0  0  0  0
   16.4140   36.4700  127.7320 H   0  0  0  0  0  0  0  0  0  0  0  0
   17.2600   35.1920  126.2730 C   0  0  0  0  0  0  0  0  0  0  0  0
   19.4460   34.1580  124.7720 C   0  0  0  0  0  0  0  0  0  0  0  0
   18.7900   35.3500  124.4020 C   0  0  0  0  0  3  0  0  0  0  0  0
   18.9870   33.4770  125.9340 C   0  0  0  0  0  0  0  0  0  0  0  0
   17.7240   35.8570  125.1390 C   0  0  0  0  0  3  0  0  0  0  0  0
   19.3860   32.2880  126.6220 C   0  0  0  0  0  0  0  0  0  0  0  0
   17.9060   34.0080  126.6500 C   0  0  0  0  0  0  0  0  0  0  0  0
   18.5610   32.1290  127.7150 C   0  0  0  0  0  3  0  0  0  0  0  0
   20.4490   31.3940  126.2840 C   0  0  0  0  0  0  0  0  0  0  0  0
   17.6730   33.1690  127.7200 N   0  0  0  0  0  0  0  0  0  0  0  0
   21.3150   30.6700  126.0110 N   0  0  0  0  0  0  0  0  0  0  0  0
   20.5960   33.6730  123.9300 C   0  0  0  0  0  1  0  0  0  0  0  0
   16.9490   33.3070  128.4110 H   0  0  0  0  0  0  0  0  0  0  0  0
   14.6440   35.7820  126.4430 S   0  0  0  0  0  0  0  0  0  0  0  0
   13.7720   35.9080  127.5910 O   0  0  0  0  0  0  0  0  0  0  0  0
   14.4680   34.7220  125.4750 O   0  0  0  0  0  0  0  0  0  0  0  0
   14.5960   37.3360  125.5750 C   0  0  0  0  0  0  0  0  0  0  0  0
   15.3640   38.4100  126.0350 C   0  0  0  0  0  3  0  0  0  0  0  0
   13.8120   37.4560  124.4230 C   0  0  0  0  0  3  0  0  0  0  0  0
   15.3200   39.6270  125.3540 C   0  0  0  0  0  3  0  0  0  0  0  0
   13.7720   38.6790  123.7450 C   0  0  0  0  0  0  0  0  0  0  0  0
   14.5230   39.7620  124.2160 C   0  0  0  0  0  3  0  0  0  0  0  0
   12.9530   38.8240  122.5770 C   0  0  0  0  0  0  0  0  0  0  0  0
   12.2700   38.9360  121.6460 N   0  0  0  0  0  0  0  0  0  0  0  0
  1  2  1  0  0  0  0
  3  9  1  0  0  0  0
  3  1  1  0  0  0  0
  4  6  1  0  0  0  0
  5  4  2  0  0  0  0
  5  7  1  0  0  0  0
  6  8  1  0  0  0  0
  6  9  2  0  0  0  0
  7  3  2  0  0  0  0
  8 10  2  0  0  0  0
  9 12  1  0  0  0  0
 10 12  1  0  0  0  0
 11  8  1  0  0  0  0
 12 15  1  0  0  0  0
 13 11  3  0  0  0  0
 14  4  1  0  0  0  0
 16  1  1  0  0  0  0
 16 17  2  0  0  0  0
 18 16  2  0  0  0  0
 19 20  1  0  0  0  0
 19 16  1  0  0  0  0
 21 19  2  0  0  0  0
 22 20  2  0  0  0  0
 23 24  2  0  0  0  0
 23 21  1  0  0  0  0
 24 22  1  0  0  0  0
 25 23  1  0  0  0  0
 26 25  3  0  0  0  0
M  END
>  <minimizedAffinity>
-8.94084358

>  <CNNscore>
0.81932056

>  <CNNaffinity>
6.54011202

$$$$
