
 OpenBabel08012617543D

 28 32  0  0  0  0  0  0  0  0999 V2000
   17.7810   36.9930  124.8530 N   0  0  0  0  0  0  0  0  0  0  0  0
   18.8420   36.1710  124.6080 C   0  0  0  0  0  3  0  0  0  0  0  0
   18.5390   34.9530  125.1850 C   0  0  0  0  0  0  0  0  0  0  0  0
   17.2900   35.1760  125.8020 C   0  0  0  0  0  3  0  0  0  0  0  0
   16.8300   36.4160  125.6070 N   0  0  0  0  0  0  0  0  0  0  0  0
   17.7180   38.4240  124.4760 C   0  0  0  0  0  0  0  0  0  0  0  0
   19.0010   39.1800  124.9290 C   0  0  0  0  0  2  0  0  0  0  0  0
   16.9930   39.2720  125.5590 C   0  0  0  0  0  2  0  0  0  0  0  0
   18.1460   40.2060  125.5860 N   0  0  0  0  0  0  0  0  0  0  0  0
   17.2980   38.5470  123.0170 C   0  0  0  0  0  2  0  0  0  0  0  0
   15.0570   37.3170  122.4110 N   0  0  0  0  0  0  0  0  0  0  0  0
   16.0410   37.8600  122.6970 C   0  0  0  0  0  0  0  0  0  0  0  0
   18.5900   41.2260  126.8500 S   0  0  0  0  0  0  0  0  0  0  0  0
   17.6590   40.9990  127.9350 O   0  0  0  0  0  0  0  0  0  0  0  0
   18.8080   42.5420  126.2930 O   0  0  0  0  0  0  0  0  0  0  0  0
   20.2330   40.6630  127.3980 C   0  0  0  0  0  3  0  0  0  0  0  0
   20.9190   41.6000  128.3570 C   0  0  0  0  0  2  0  0  0  0  0  0
   20.3410   40.3010  128.8550 C   0  0  0  0  0  2  0  0  0  0  0  0
   19.4170   33.8050  125.1500 C   0  0  0  0  0  0  0  0  0  0  0  0
   20.3100   33.7340  124.1300 N   0  0  0  0  0  0  0  0  0  0  0  0
   19.3730   32.7830  126.1060 C   0  0  0  0  0  0  0  0  0  0  0  0
   21.1450   32.6800  124.0940 C   0  0  0  0  0  3  0  0  0  0  0  0
   18.6140   32.4360  127.2620 C   0  0  0  0  0  3  0  0  0  0  0  0
   20.2980   31.7620  125.9300 C   0  0  0  0  0  0  0  0  0  0  0  0
   21.2100   31.6520  124.9540 N   0  0  0  0  0  0  0  0  0  0  0  0
   19.1080   31.2440  127.7530 C   0  0  0  0  0  3  0  0  0  0  0  0
   20.1330   30.8500  126.9350 N   0  0  0  0  0  0  0  0  0  0  0  0
   20.6900   30.0110  127.0310 H   0  0  0  0  0  0  0  0  0  0  0  0
  1  5  1  0  0  0  0
  2  1  1  0  0  0  0
  2  3  2  0  0  0  0
  3  4  1  0  0  0  0
  5  4  2  0  0  0  0
  6  1  1  0  0  0  0
  6  7  1  0  0  0  0
  6  8  1  0  0  0  0
  7  9  1  0  0  0  0
  8  9  1  0  0  0  0
  9 13  1  0  0  0  0
 10  6  1  0  0  0  0
 11 12  3  0  0  0  0
 12 10  1  0  0  0  0
 13 16  1  0  0  0  0
 13 14  2  0  0  0  0
 15 13  2  0  0  0  0
 16 17  1  0  0  0  0
 16 18  1  0  0  0  0
 17 18  1  0  0  0  0
 19  3  1  0  0  0  0
 19 21  1  0  0  0  0
 20 19  2  0  0  0  0
 21 23  1  0  0  0  0
 22 20  1  0  0  0  0
 22 25  2  0  0  0  0
 23 26  2  0  0  0  0
 24 21  2  0  0  0  0
 24 27  1  0  0  0  0
 25 24  1  0  0  0  0
 27 28  1  0  0  0  0
 27 26  1  0  0  0  0
M  END
>  <minimizedAffinity>
-8.72634697

>  <CNNscore>
0.502955198

>  <CNNaffinity>
6.71382475

$$$$
