
 OpenBabel08012617423D

 28 31  0  0  0  0  0  0  0  0999 V2000
   19.2980   35.1330  124.7880 C   0  0  0  0  0  0  0  0  0  0  0  0
   20.4090   35.9790  124.9370 C   0  0  0  0  0  3  0  0  0  0  0  0
   20.3230   37.3580  124.6920 C   0  0  0  0  0  3  0  0  0  0  0  0
   19.1270   37.9400  124.2730 C   0  0  0  0  0  0  0  0  0  0  0  0
   18.0050   37.1140  124.1620 C   0  0  0  0  0  3  0  0  0  0  0  0
   18.0930   35.7360  124.4070 C   0  0  0  0  0  3  0  0  0  0  0  0
   19.3990   33.7160  125.0550 N   0  0  0  0  0  0  0  0  0  0  0  0
   19.0340   33.2640  126.4000 C   0  0  0  0  0  1  0  0  0  0  0  0
   19.9430   32.8240  124.1110 C   0  0  0  0  0  0  0  0  0  0  0  0
   19.2940   32.1480  123.3100 O   0  0  0  0  0  0  0  0  0  0  0  0
   21.4510   32.7160  124.0670 C   0  0  0  0  0  1  0  0  0  0  0  0
   18.9670   39.3400  124.0900 N   0  0  0  0  0  0  0  0  0  0  0  0
   19.6240   39.6430  123.3690 H   0  0  0  0  0  0  0  0  0  0  0  0
   18.9420   40.2950  125.1440 C   0  0  0  0  0  0  0  0  0  0  0  0
   19.9150   40.2300  126.1420 C   0  0  0  0  0  3  0  0  0  0  0  0
   17.9110   41.2560  125.2750 C   0  0  0  0  0  0  0  0  0  0  0  0
   19.8490   41.1170  127.2080 C   0  0  0  0  0  0  0  0  0  0  0  0
   16.8600   41.4300  124.3370 C   0  0  0  0  0  0  0  0  0  0  0  0
   17.9170   42.1180  126.3950 C   0  0  0  0  0  0  0  0  0  0  0  0
   18.8710   42.0440  127.3360 N   0  0  0  0  0  0  0  0  0  0  0  0
   16.5500   40.8060  123.1540 N   0  0  0  0  0  0  0  0  0  0  0  0
   15.8570   42.3810  124.4840 C   0  0  0  0  0  0  0  0  0  0  0  0
   16.9140   43.0690  126.5360 C   0  0  0  0  0  3  0  0  0  0  0  0
   15.4120   41.3700  122.6580 C   0  0  0  0  0  3  0  0  0  0  0  0
   15.8750   43.2190  125.6020 C   0  0  0  0  0  3  0  0  0  0  0  0
   14.9680   42.3280  123.4390 N   0  0  0  0  0  0  0  0  0  0  0  0
   20.8840   41.0620  128.2940 C   0  0  0  0  0  1  0  0  0  0  0  0
   17.0800   40.0490  122.7440 H   0  0  0  0  0  0  0  0  0  0  0  0
  1  2  1  0  0  0  0
  1  7  1  0  0  0  0
  3  2  2  0  0  0  0
  4  3  1  0  0  0  0
  5  4  2  0  0  0  0
  5  6  1  0  0  0  0
  6  1  2  0  0  0  0
  7  8  1  0  0  0  0
  9  7  1  0  0  0  0
 10  9  2  0  0  0  0
 11  9  1  0  0  0  0
 12  4  1  0  0  0  0
 12 14  1  0  0  0  0
 13 12  1  0  0  0  0
 14 16  2  0  0  0  0
 14 15  1  0  0  0  0
 15 17  2  0  0  0  0
 16 19  1  0  0  0  0
 17 20  1  0  0  0  0
 17 27  1  0  0  0  0
 18 22  2  0  0  0  0
 18 16  1  0  0  0  0
 19 23  1  0  0  0  0
 19 20  2  0  0  0  0
 21 18  1  0  0  0  0
 22 25  1  0  0  0  0
 24 21  1  0  0  0  0
 24 26  2  0  0  0  0
 25 23  2  0  0  0  0
 26 22  1  0  0  0  0
 28 21  1  0  0  0  0
M  END
>  <minimizedAffinity>
-8.68805408

>  <CNNscore>
0.417652756

>  <CNNaffinity>
5.94064569

$$$$
