
 OpenBabel08012604123D

 37 42  0  0  1  0  0  0  0  0999 V2000
   18.3820   34.2980  125.9350 N   0  0  0  0  0  0  0  0  0  0  0  0
   17.0970   34.7310  125.6880 N   0  0  0  0  0  2  0  0  0  0  0  0
   17.1570   36.0230  125.6100 C   0  0  1  0  0  3  0  0  0  0  0  0
   16.0220   36.9040  125.3080 C   0  0  0  0  0  0  0  0  0  0  0  0
   14.7550   36.3890  125.0300 C   0  0  0  0  0  3  0  0  0  0  0  0
   13.7200   37.2710  124.7300 C   0  0  0  0  0  3  0  0  0  0  0  0
   13.9820   38.6370  124.7560 C   0  0  0  0  0  0  0  0  0  0  0  0
   15.2110   39.1590  125.0290 N   0  0  0  0  0  0  0  0  0  0  0  0
   16.2190   38.2840  125.2740 C   0  0  0  0  0  0  0  0  0  0  0  0
   17.5870   38.8820  125.5140 C   0  0  0  0  0  2  0  0  0  0  0  0
   18.7100   37.9040  125.1500 C   0  0  0  0  0  2  0  0  0  0  0  0
   18.5080   36.6110  125.9170 C   0  0  2  0  0  3  0  0  0  0  0  0
   19.3690   35.3600  125.6390 C   0  0  2  0  0  3  0  0  0  0  0  0
   18.5530   33.2680  126.8690 C   0  0  0  0  0  0  0  0  0  0  0  0
   19.4410   29.3740  130.5760 N   0  0  0  0  0  0  0  0  0  0  0  0
   19.2350   30.1930  129.7760 C   0  0  0  0  0  0  0  0  0  0  0  0
   18.9890   31.2110  128.7990 C   0  0  0  0  0  0  0  0  0  0  0  0
   19.5590   32.4700  128.9700 C   0  0  0  0  0  3  0  0  0  0  0  0
   18.1850   30.9850  127.6790 C   0  0  0  0  0  0  0  0  0  0  0  0
   19.3390   33.4760  128.0190 C   0  0  0  0  0  3  0  0  0  0  0  0
   17.9670   32.0030  126.7350 C   0  0  0  0  0  3  0  0  0  0  0  0
   17.4400   29.4550  127.3840 Cl  0  0  0  0  0  0  0  0  0  0  0  0
   19.8630   35.1990  124.1740 C   0  0  0  0  0  3  0  0  0  0  0  0
   21.3780   34.9900  124.0520 C   0  0  0  0  0  2  0  0  0  0  0  0
   19.3470   33.9370  123.4630 C   0  0  0  0  0  2  0  0  0  0  0  0
   21.6100   33.4920  124.2220 C   0  0  0  0  0  2  0  0  0  0  0  0
   20.2830   32.8180  123.8940 C   0  0  0  0  0  2  0  0  0  0  0  0
   12.8860   39.5950  124.3990 C   0  0  0  0  0  0  0  0  0  0  0  0
   12.0640   39.8780  125.2750 O   0  0  0  0  0  0  0  0  0  0  0  0
   12.8480   40.1650  123.1150 N   0  0  0  0  0  0  0  0  0  0  0  0
   13.8800   39.9480  122.0950 C   0  0  0  0  0  2  0  0  0  0  0  0
   11.6980   40.9730  122.7320 C   0  0  0  0  0  2  0  0  0  0  0  0
   13.7870   40.9300  120.9330 C   0  0  0  0  0  2  0  0  0  0  0  0
   12.1090   42.3450  122.2030 C   0  0  0  0  0  2  0  0  0  0  0  0
   13.4400   42.3210  121.4510 C   0  0  2  0  0  3  0  0  0  0  0  0
   13.4130   43.2500  120.3700 O   0  0  0  0  0  0  0  0  0  0  0  0
   12.6930   43.0050  119.7630 H   0  0  0  0  0  0  0  0  0  0  0  0
  1 14  1  0  0  0  0
  2  1  1  0  0  0  0
  3  4  1  1  0  0  0
  3  2  1  0  0  0  0
  3 12  1  0  0  0  0
  5  4  2  0  0  0  0
  6  7  2  0  0  0  0
  6  5  1  0  0  0  0
  7  8  1  0  0  0  0
  8  9  2  0  0  0  0
  9  4  1  0  0  0  0
  9 10  1  0  0  0  0
 11 10  1  0  0  0  0
 12 11  1  6  0  0  0
 13 23  1  6  0  0  0
 13 12  1  0  0  0  0
 13  1  1  0  0  0  0
 14 20  1  0  0  0  0
 16 15  3  0  0  0  0
 17 18  1  0  0  0  0
 17 16  1  0  0  0  0
 19 17  2  0  0  0  0
 20 18  2  0  0  0  0
 21 14  2  0  0  0  0
 21 19  1  0  0  0  0
 22 19  1  0  0  0  0
 24 23  1  0  0  0  0
 24 26  1  0  0  0  0
 25 27  1  0  0  0  0
 25 23  1  0  0  0  0
 27 26  1  0  0  0  0
 28  7  1  0  0  0  0
 28 29  2  0  0  0  0
 30 28  1  0  0  0  0
 31 30  1  0  0  0  0
 32 30  1  0  0  0  0
 33 35  1  0  0  0  0
 33 31  1  0  0  0  0
 34 32  1  0  0  0  0
 35 36  1  6  0  0  0
 35 34  1  0  0  0  0
 37 36  1  0  0  0  0
M  END
>  <minimizedAffinity>
-6.03408909

>  <CNNscore>
0.609925449

>  <CNNaffinity>
7.42421389

$$$$
