
 OpenBabel08012606303D

 43 50  0  0  1  0  0  0  0  0999 V2000
   14.2790   37.1680  125.9190 C   0  0  0  0  0  0  0  0  0  0  0  0
   13.3770   37.3630  126.9080 N   0  0  0  0  0  0  0  0  0  0  0  0
   13.5110   36.5640  127.9790 C   0  0  0  0  0  3  0  0  0  0  0  0
   14.4540   35.6150  128.1400 N   0  0  0  0  0  0  0  0  0  0  0  0
   15.3310   35.3980  127.1340 N   0  0  0  0  0  0  0  0  0  0  0  0
   15.2210   36.1370  126.0090 C   0  0  0  0  0  0  0  0  0  0  0  0
   14.2590   38.0410  124.7970 N   0  0  0  0  0  0  0  0  0  0  0  0
   13.9490   42.1780  119.8180 O   0  0  0  0  0  0  0  0  0  0  0  0
   13.0290   42.1890  120.6430 C   0  0  0  0  0  0  0  0  0  0  0  0
   12.7210   41.0580  121.4000 N   0  0  0  0  0  0  0  0  0  0  0  0
   13.5370   39.8600  121.2320 C   0  0  0  0  0  2  0  0  0  0  0  0
   11.9250   41.0750  122.6320 C   0  0  0  0  0  2  0  0  0  0  0  0
   14.5200   39.7250  122.3940 C   0  0  0  0  0  2  0  0  0  0  0  0
   12.8550   40.9800  123.8500 C   0  0  0  0  0  2  0  0  0  0  0  0
   13.7400   39.7310  123.7230 C   0  0  1  0  0  0  0  0  0  0  0  0
   13.0420   38.4030  124.1050 C   0  0  0  0  0  2  0  0  0  0  0  0
   14.6150   39.4380  124.9600 C   0  0  0  0  0  2  0  0  0  0  0  0
   12.1560   43.4450  120.8370 C   0  0  1  0  0  3  0  0  0  0  0  0
   12.6950   44.5980  120.0630 N   0  0  0  0  0  0  0  0  0  0  0  0
   10.7340   43.3010  120.2750 C   0  0  1  0  0  3  0  0  0  0  0  0
   11.5880   45.5630  120.0830 C   0  0  0  0  0  2  0  0  0  0  0  0
    9.6910   42.9000  121.3230 C   0  0  0  0  0  2  0  0  0  0  0  0
   10.3490   44.7190  119.8140 C   0  0  2  0  0  3  0  0  0  0  0  0
    9.1700   44.2260  121.8690 C   0  0  0  0  0  2  0  0  0  0  0  0
    9.1210   45.1180  120.6340 C   0  0  0  0  0  2  0  0  0  0  0  0
   12.8260   44.2850  119.0960 H   0  0  0  0  0  0  0  0  0  0  0  0
   16.0880   35.7940  124.9960 O   0  0  0  0  0  0  0  0  0  0  0  0
   17.3300   36.4050  125.0130 C   0  0  0  0  0  0  0  0  0  0  0  0
   17.3250   37.7440  124.5950 C   0  0  0  0  0  3  0  0  0  0  0  0
   18.5250   35.8020  125.4670 C   0  0  0  0  0  0  0  0  0  0  0  0
   18.5160   38.4730  124.5520 C   0  0  0  0  0  3  0  0  0  0  0  0
   19.7160   36.5520  125.3870 C   0  0  0  0  0  3  0  0  0  0  0  0
   19.7040   37.8630  124.9230 C   0  0  0  0  0  0  0  0  0  0  0  0
   20.8510   38.5440  124.8390 F   0  0  0  0  0  0  0  0  0  0  0  0
   18.5870   34.4700  126.0890 C   0  0  0  0  0  0  0  0  0  0  0  0
   17.8120   34.1550  127.1980 C   0  0  0  0  0  3  0  0  0  0  0  0
   19.3830   33.4280  125.5890 C   0  0  0  0  0  0  0  0  0  0  0  0
   17.8000   32.9490  127.8010 N   0  0  0  0  0  0  0  0  0  0  0  0
   19.3830   32.2030  126.1750 N   0  0  0  0  0  0  0  0  0  0  0  0
   18.6060   32.0300  127.2540 C   0  0  0  0  0  3  0  0  0  0  0  0
   20.2510   33.6150  124.3490 C   0  0  0  0  0  3  0  0  0  0  0  0
   21.4010   32.6590  124.1010 C   0  0  0  0  0  2  0  0  0  0  0  0
   20.2040   32.6300  123.1990 C   0  0  0  0  0  2  0  0  0  0  0  0
  1  6  1  0  0  0  0
  1  2  2  0  0  0  0
  2  3  1  0  0  0  0
  3  4  2  0  0  0  0
  5  4  1  0  0  0  0
  6  5  2  0  0  0  0
  7 17  1  0  0  0  0
  7  1  1  0  0  0  0
  8  9  2  0  0  0  0
  9 10  1  0  0  0  0
 10 12  1  0  0  0  0
 11 10  1  0  0  0  0
 11 13  1  0  0  0  0
 12 14  1  0  0  0  0
 15 13  1  6  0  0  0
 15 14  1  0  0  0  0
 15 16  1  0  0  0  0
 15 17  1  0  0  0  0
 16  7  1  0  0  0  0
 18  9  1  6  0  0  0
 19 21  1  0  0  0  0
 19 18  1  0  0  0  0
 20 18  1  0  0  0  0
 20 22  1  1  0  0  0
 22 24  1  0  0  0  0
 23 21  1  1  0  0  0
 23 20  1  0  0  0  0
 23 25  1  0  0  0  0
 25 24  1  0  0  0  0
 26 19  1  0  0  0  0
 27 28  1  0  0  0  0
 27  6  1  0  0  0  0
 28 30  1  0  0  0  0
 29 28  2  0  0  0  0
 30 35  1  0  0  0  0
 31 29  1  0  0  0  0
 31 33  2  0  0  0  0
 32 30  2  0  0  0  0
 33 32  1  0  0  0  0
 34 33  1  0  0  0  0
 35 36  1  0  0  0  0
 36 38  2  0  0  0  0
 37 35  2  0  0  0  0
 37 39  1  0  0  0  0
 39 40  2  0  0  0  0
 40 38  1  0  0  0  0
 41 37  1  0  0  0  0
 42 41  1  0  0  0  0
 43 42  1  0  0  0  0
 43 41  1  0  0  0  0
M  END
>  <minimizedAffinity>
-10.719202

>  <CNNscore>
0.248226881

>  <CNNaffinity>
7.45142317

$$$$
