
 OpenBabel08012605023D

 41 45  0  0  1  0  0  0  0  0999 V2000
   19.6530   35.0130  124.4890 N   0  0  0  0  0  0  0  0  0  0  0  0
   20.9760   34.7150  124.2150 C   0  0  0  0  0  3  0  0  0  0  0  0
   21.0590   33.3540  124.0500 C   0  0  0  0  0  3  0  0  0  0  0  0
   19.7480   32.9040  124.2390 C   0  0  0  0  0  0  0  0  0  0  0  0
   18.8900   33.8800  124.5320 N   0  0  0  0  0  0  0  0  0  0  0  0
   19.1050   36.3170  124.6800 C   0  0  0  0  0  0  0  0  0  0  0  0
   17.1850   37.6790  124.7800 C   0  0  0  0  0  0  0  0  0  0  0  0
   17.7580   36.4700  124.5370 N   0  0  0  0  0  0  0  0  0  0  0  0
   18.0000   38.7750  125.1290 C   0  0  0  0  0  0  0  0  0  0  0  0
   19.3870   38.5990  125.2600 C   0  0  0  0  0  3  0  0  0  0  0  0
   19.9520   37.3550  125.0370 C   0  0  0  0  0  3  0  0  0  0  0  0
   15.8060   37.7470  124.7400 N   0  0  0  0  0  0  0  0  0  0  0  0
   13.5950   37.2140  125.4110 C   0  0  2  0  0  3  0  0  0  0  0  0
   15.0690   36.9210  125.6990 C   0  0  0  0  0  2  0  0  0  0  0  0
   13.5830   37.5090  123.9130 C   0  0  0  0  0  2  0  0  0  0  0  0
   14.9820   38.0880  123.5660 C   0  0  0  0  0  0  0  0  0  0  0  0
   13.0380   38.3630  126.2470 C   0  0  0  0  0  1  0  0  0  0  0  0
   15.4290   37.4710  122.2340 C   0  0  0  0  0  1  0  0  0  0  0  0
   14.9320   39.6150  123.4200 C   0  0  0  0  0  1  0  0  0  0  0  0
   17.5170   40.1610  125.3680 C   0  0  0  0  0  0  0  0  0  0  0  0
   17.5210   40.9050  124.3880 O   0  0  0  0  0  0  0  0  0  0  0  0
   17.0660   40.3680  126.6020 N   0  0  0  0  0  2  0  0  0  0  0  0
   17.5610   41.6580  127.3870 S   0  0  0  0  0  0  0  0  0  0  0  0
   17.1210   42.9100  126.7650 O   0  0  0  0  0  0  0  0  0  0  0  0
   17.3810   41.6460  128.8390 O   0  0  0  0  0  0  0  0  0  0  0  0
   19.3630   41.7750  127.1880 C   0  0  0  0  0  0  0  0  0  0  0  0
   20.2070   41.1920  128.1340 C   0  0  0  0  0  3  0  0  0  0  0  0
   19.8810   42.4980  126.1110 C   0  0  0  0  0  3  0  0  0  0  0  0
   21.5880   41.3190  127.9900 C   0  0  0  0  0  3  0  0  0  0  0  0
   21.2650   42.6220  125.9730 C   0  0  0  0  0  3  0  0  0  0  0  0
   22.1170   42.0320  126.9110 C   0  0  0  0  0  3  0  0  0  0  0  0
   19.3460   31.6160  124.1520 O   0  0  0  0  0  0  0  0  0  0  0  0
   18.8510   31.0420  125.3630 C   0  0  0  0  0  2  0  0  0  0  0  0
   19.9240   31.0490  126.4570 C   0  0  0  0  0  2  0  0  0  0  0  0
   19.4190   31.5780  127.7920 C   0  0  0  0  0  0  0  0  0  0  0  0
   18.1160   32.3640  127.7940 C   0  0  0  0  0  2  0  0  0  0  0  0
   19.4180   33.0890  127.9650 C   0  0  0  0  0  2  0  0  0  0  0  0
   19.7450   30.7140  128.9880 C   0  0  0  0  0  0  0  0  0  0  0  0
   20.6230   31.3350  129.8080 F   0  0  0  0  0  0  0  0  0  0  0  0
   18.6370   30.4050  129.6970 F   0  0  0  0  0  0  0  0  0  0  0  0
   20.3210   29.5460  128.6070 F   0  0  0  0  0  0  0  0  0  0  0  0
  1  5  1  0  0  0  0
  1  6  1  0  0  0  0
  2  1  1  0  0  0  0
  3  2  2  0  0  0  0
  3  4  1  0  0  0  0
  4  5  2  0  0  0  0
  6 11  1  0  0  0  0
  7  9  2  0  0  0  0
  8  6  2  0  0  0  0
  8  7  1  0  0  0  0
  9 10  1  0  0  0  0
  9 20  1  0  0  0  0
 11 10  2  0  0  0  0
 12  7  1  0  0  0  0
 12 14  1  0  0  0  0
 13 14  1  0  0  0  0
 13 17  1  1  0  0  0
 15 13  1  0  0  0  0
 16 15  1  0  0  0  0
 16 12  1  0  0  0  0
 18 16  1  0  0  0  0
 19 16  1  0  0  0  0
 20 22  1  0  0  0  0
 21 20  2  0  0  0  0
 22 23  1  0  0  0  0
 23 25  2  0  0  0  0
 24 23  2  0  0  0  0
 26 23  1  0  0  0  0
 26 27  1  0  0  0  0
 28 26  2  0  0  0  0
 29 27  2  0  0  0  0
 30 28  1  0  0  0  0
 30 31  2  0  0  0  0
 31 29  1  0  0  0  0
 32  4  1  0  0  0  0
 32 33  1  0  0  0  0
 33 34  1  0  0  0  0
 34 35  1  0  0  0  0
 35 36  1  0  0  0  0
 35 37  1  0  0  0  0
 35 38  1  0  0  0  0
 36 37  1  0  0  0  0
 38 40  1  0  0  0  0
 38 39  1  0  0  0  0
 41 38  1  0  0  0  0
M  END
>  <minimizedAffinity>
-10.137291

>  <CNNscore>
0.280439019

>  <CNNaffinity>
7.25355005

$$$$
