
 OpenBabel08012608443D

 30 34  0  0  1  0  0  0  0  0999 V2000
   19.6640   36.8360  124.5670 C   0  0  0  0  0  1  0  0  0  0  0  0
   18.8170   36.4350  125.7780 C   0  0  2  0  0  3  0  0  0  0  0  0
   19.5850   35.4840  126.7040 C   0  0  0  0  0  2  0  0  0  0  0  0
   19.0510   34.1620  126.3570 N   0  0  0  0  0  0  0  0  0  0  0  0
   17.6080   34.3780  126.2160 C   0  0  0  0  0  2  0  0  0  0  0  0
   17.5600   35.6390  125.3600 C   0  0  1  0  0  3  0  0  0  0  0  0
   16.2760   36.4370  125.5160 C   0  0  0  0  0  0  0  0  0  0  0  0
   15.8570   37.2600  124.5940 N   0  0  0  0  0  0  0  0  0  0  0  0
   15.6070   36.2160  126.7180 N   0  0  0  0  0  0  0  0  0  0  0  0
   14.6960   37.8870  124.9150 C   0  0  0  0  0  0  0  0  0  0  0  0
   14.4320   36.8490  127.0800 C   0  0  0  0  0  0  0  0  0  0  0  0
   13.9660   37.7500  126.0700 C   0  0  0  0  0  0  0  0  0  0  0  0
   14.0200   38.8100  124.1580 N   0  0  0  0  0  0  0  0  0  0  0  0
   13.8750   36.6540  128.1550 O   0  0  0  0  0  0  0  0  0  0  0  0
   12.8790   38.6170  125.9420 C   0  0  0  0  0  3  0  0  0  0  0  0
   12.9070   39.2800  124.7790 N   0  0  0  0  0  0  0  0  0  0  0  0
   15.9840   35.5880  127.4180 H   0  0  0  0  0  0  0  0  0  0  0  0
   14.4370   39.3560  122.8660 C   0  0  0  0  0  3  0  0  0  0  0  0
   13.2500   39.7530  121.9700 C   0  0  0  0  0  2  0  0  0  0  0  0
   15.4360   40.5000  123.0560 C   0  0  0  0  0  2  0  0  0  0  0  0
   13.4400   41.1400  121.3740 C   0  0  0  0  0  2  0  0  0  0  0  0
   14.7250   41.8260  123.2940 C   0  0  0  0  0  2  0  0  0  0  0  0
   13.6750   42.1220  122.3710 O   0  0  0  0  0  0  0  0  0  0  0  0
   19.3520   33.1430  127.3870 C   0  0  0  0  0  2  0  0  0  0  0  0
   18.6890   31.7940  127.1590 C   0  0  0  0  0  0  0  0  0  0  0  0
   18.3600   31.0640  128.2480 N   0  0  0  0  0  0  0  0  0  0  0  0
   18.4790   31.4000  125.8860 N   0  0  0  0  0  0  0  0  0  0  0  0
   17.7900   29.8710  128.0140 C   0  0  0  0  0  3  0  0  0  0  0  0
   17.9140   30.1940  125.7190 C   0  0  0  0  0  3  0  0  0  0  0  0
   17.5440   29.3780  126.7570 C   0  0  0  0  0  3  0  0  0  0  0  0
  2  1  1  6  0  0  0
  2  3  1  0  0  0  0
  4  3  1  0  0  0  0
  4 24  1  0  0  0  0
  5  4  1  0  0  0  0
  6  7  1  1  0  0  0
  6  2  1  0  0  0  0
  6  5  1  0  0  0  0
  7  9  1  0  0  0  0
  8 10  1  0  0  0  0
  8  7  2  0  0  0  0
  9 11  1  0  0  0  0
  9 17  1  0  0  0  0
 10 12  2  0  0  0  0
 11 14  2  0  0  0  0
 12 11  1  0  0  0  0
 13 16  1  0  0  0  0
 13 10  1  0  0  0  0
 15 12  1  0  0  0  0
 16 15  2  0  0  0  0
 18 20  1  0  0  0  0
 18 13  1  0  0  0  0
 19 18  1  0  0  0  0
 20 22  1  0  0  0  0
 21 19  1  0  0  0  0
 21 23  1  0  0  0  0
 23 22  1  0  0  0  0
 25 24  1  0  0  0  0
 25 26  2  0  0  0  0
 27 25  1  0  0  0  0
 28 26  1  0  0  0  0
 29 27  2  0  0  0  0
 29 30  1  0  0  0  0
 30 28  2  0  0  0  0
M  END
>  <minimizedAffinity>
-8.30649185

>  <CNNscore>
0.360342503

>  <CNNaffinity>
6.26403189

$$$$
