
 OpenBabel08012606253D

 30 33  0  0  0  0  0  0  0  0999 V2000
   14.1710   39.7010  122.2890 C   0  0  0  0  0  0  0  0  0  0  0  0
   14.4330   38.4530  121.6980 C   0  0  0  0  0  3  0  0  0  0  0  0
   15.5450   37.6950  122.0760 C   0  0  0  0  0  3  0  0  0  0  0  0
   16.4390   38.1490  123.0520 C   0  0  0  0  0  0  0  0  0  0  0  0
   16.1570   39.4140  123.5930 C   0  0  0  0  0  0  0  0  0  0  0  0
   16.9130   40.0270  124.5490 O   0  0  0  0  0  0  0  0  0  0  0  0
   16.3580   41.2410  124.7890 C   0  0  0  0  0  0  0  0  0  0  0  0
   16.8490   42.1710  125.6920 C   0  0  0  0  0  3  0  0  0  0  0  0
   16.1130   43.3400  125.7390 C   0  0  0  0  0  3  0  0  0  0  0  0
   15.0200   43.5950  124.9830 N   0  0  0  0  0  0  0  0  0  0  0  0
   14.5820   42.6600  124.1010 C   0  0  0  0  0  3  0  0  0  0  0  0
   15.2330   41.4280  123.9970 C   0  0  0  0  0  0  0  0  0  0  0  0
   15.0740   40.2190  123.2420 C   0  0  0  0  0  0  0  0  0  0  0  0
   12.9370   40.4090  121.8900 C   0  0  0  0  0  0  0  0  0  0  0  0
   11.8820   39.7920  121.8540 O   0  0  0  0  0  0  0  0  0  0  0  0
   13.0780   41.7770  121.7400 N   0  0  0  0  0  0  0  0  0  0  0  0
   13.8410   42.1890  122.2730 H   0  0  0  0  0  0  0  0  0  0  0  0
   11.9990   42.6530  121.4420 C   0  0  0  0  0  0  0  0  0  0  0  0
   11.0780   42.9250  122.4640 C   0  0  0  0  0  0  0  0  0  0  0  0
   11.8180   43.2960  120.2070 C   0  0  0  0  0  0  0  0  0  0  0  0
    9.9750   43.7390  122.2310 C   0  0  0  0  0  3  0  0  0  0  0  0
   10.6990   44.1010  119.9990 C   0  0  0  0  0  3  0  0  0  0  0  0
    9.7730   44.3170  120.9970 N   0  3  0  0  0  0  0  0  0  0  0  0
   11.2570   42.2360  124.0400 Cl  0  0  0  0  0  0  0  0  0  0  0  0
   13.0090   43.3130  118.9540 Cl  0  0  0  0  0  0  0  0  0  0  0  0
    8.7670   45.0580  120.7950 O   0  5  0  0  0  0  0  0  0  0  0  0
   17.5440   37.4950  123.5100 O   0  0  0  0  0  0  0  0  0  0  0  0
   17.3640   36.3130  124.2740 C   0  0  0  0  0  3  0  0  0  0  0  0
   18.2090   35.3490  123.8370 F   0  0  0  0  0  0  0  0  0  0  0  0
   17.6410   36.5600  125.5770 F   0  0  0  0  0  0  0  0  0  0  0  0
  1 13  1  0  0  0  0
  2  3  1  0  0  0  0
  2  1  2  0  0  0  0
  3  4  2  0  0  0  0
  4 27  1  0  0  0  0
  4  5  1  0  0  0  0
  5  6  1  0  0  0  0
  6  7  1  0  0  0  0
  7  8  1  0  0  0  0
  8  9  2  0  0  0  0
 10  9  1  0  0  0  0
 11 10  2  0  0  0  0
 12 11  1  0  0  0  0
 12  7  2  0  0  0  0
 13  5  2  0  0  0  0
 13 12  1  0  0  0  0
 14  1  1  0  0  0  0
 15 14  2  0  0  0  0
 16 14  1  0  0  0  0
 16 17  1  0  0  0  0
 18 16  1  0  0  0  0
 18 19  1  0  0  0  0
 19 24  1  0  0  0  0
 20 18  2  0  0  0  0
 21 19  2  0  0  0  0
 22 20  1  0  0  0  0
 22 23  2  0  0  0  0
 23 21  1  0  0  0  0
 25 20  1  0  0  0  0
 26 23  1  0  0  0  0
 27 28  1  0  0  0  0
 28 30  1  0  0  0  0
 29 28  1  0  0  0  0
M  CHG  2  23   1  26  -1
M  END
>  <minimizedAffinity>
-7.75128651

>  <CNNscore>
0.201664791

>  <CNNaffinity>
5.47831011

$$$$
