
 OpenBabel08012613543D

 29 32  0  0  0  0  0  0  0  0999 V2000
   14.3890   38.5870  123.8300 N   0  0  0  0  0  0  0  0  0  0  0  0
   15.2650   39.2770  124.6210 C   0  0  0  0  0  3  0  0  0  0  0  0
   15.2400   38.6610  125.8500 C   0  0  0  0  0  3  0  0  0  0  0  0
   14.3100   37.6010  125.7060 C   0  0  0  0  0  0  0  0  0  0  0  0
   13.8180   37.5410  124.4540 N   0  0  0  0  0  0  0  0  0  0  0  0
   14.0460   38.8620  122.4370 C   0  0  0  0  0  3  0  0  0  0  0  0
   12.5460   38.7070  122.1900 C   0  0  0  0  0  1  0  0  0  0  0  0
   14.8630   37.9960  121.4790 C   0  0  0  0  0  1  0  0  0  0  0  0
   13.9070   36.4920  127.0000 S   0  0  0  0  0  0  0  0  0  0  0  0
   13.0580   35.5020  126.3650 O   0  0  0  0  0  0  0  0  0  0  0  0
   13.4290   37.2780  128.1170 O   0  0  0  0  0  0  0  0  0  0  0  0
   15.2440   35.6380  127.5080 N   0  0  0  0  0  0  0  0  0  0  0  0
   16.0690   34.9070  126.6650 C   0  0  0  0  0  0  0  0  0  0  0  0
   15.8010   34.7610  125.4870 O   0  0  0  0  0  0  0  0  0  0  0  0
   17.1600   34.4300  127.3340 N   0  0  0  0  0  0  0  0  0  0  0  0
   15.4140   35.7390  128.4980 H   0  0  0  0  0  0  0  0  0  0  0  0
   17.3340   34.8850  128.2140 H   0  0  0  0  0  0  0  0  0  0  0  0
   18.1790   33.5670  126.8840 C   0  0  0  0  0  0  0  0  0  0  0  0
   19.0190   34.0410  125.8670 C   0  0  0  0  0  0  0  0  0  0  0  0
   18.4700   32.2930  127.3740 C   0  0  0  0  0  0  0  0  0  0  0  0
   20.0500   33.2500  125.3140 C   0  0  0  0  0  0  0  0  0  0  0  0
   18.9570   35.3540  125.1320 C   0  0  0  0  0  2  0  0  0  0  0  0
   19.5180   31.5180  126.8140 C   0  0  0  0  0  0  0  0  0  0  0  0
   17.8420   31.5070  128.4910 C   0  0  0  0  0  2  0  0  0  0  0  0
   20.3040   31.9700  125.7670 C   0  0  0  0  0  3  0  0  0  0  0  0
   20.7360   33.9540  124.1840 C   0  0  0  0  0  2  0  0  0  0  0  0
   20.3290   35.4050  124.4500 C   0  0  0  0  0  2  0  0  0  0  0  0
   19.6230   30.1770  127.4780 C   0  0  0  0  0  2  0  0  0  0  0  0
   18.9170   30.4590  128.8020 C   0  0  0  0  0  2  0  0  0  0  0  0
  1  5  1  0  0  0  0
  1  2  1  0  0  0  0
  2  3  2  0  0  0  0
  4  3  1  0  0  0  0
  4  9  1  0  0  0  0
  5  4  2  0  0  0  0
  6  1  1  0  0  0  0
  7  6  1  0  0  0  0
  8  6  1  0  0  0  0
  9 12  1  0  0  0  0
  9 11  2  0  0  0  0
 10  9  2  0  0  0  0
 12 16  1  0  0  0  0
 13 15  1  0  0  0  0
 13 12  1  0  0  0  0
 14 13  2  0  0  0  0
 15 17  1  0  0  0  0
 18 15  1  0  0  0  0
 18 20  1  0  0  0  0
 19 18  2  0  0  0  0
 20 24  1  0  0  0  0
 21 25  2  0  0  0  0
 21 19  1  0  0  0  0
 22 19  1  0  0  0  0
 23 20  2  0  0  0  0
 23 28  1  0  0  0  0
 24 29  1  0  0  0  0
 25 23  1  0  0  0  0
 26 27  1  0  0  0  0
 26 21  1  0  0  0  0
 27 22  1  0  0  0  0
 28 29  1  0  0  0  0
M  END
>  <minimizedAffinity>
-10.0513153

>  <CNNscore>
0.915442824

>  <CNNaffinity>
6.92134619

$$$$
