
 OpenBabel08012603523D

 42 47  0  0  1  0  0  0  0  0999 V2000
   18.2720   34.8740  125.6680 C   0  0  0  0  0  0  0  0  0  0  0  0
   16.9530   35.3550  125.6960 C   0  0  0  0  0  3  0  0  0  0  0  0
   16.6190   36.6110  125.1670 C   0  0  0  0  0  3  0  0  0  0  0  0
   17.6330   37.4020  124.6000 C   0  0  0  0  0  0  0  0  0  0  0  0
   17.7220   38.6740  123.9810 C   0  0  0  0  0  0  0  0  0  0  0  0
   18.9730   38.9750  123.6010 N   0  0  0  0  0  0  0  0  0  0  0  0
   19.6790   37.8930  123.9790 N   0  0  0  0  0  0  0  0  0  0  0  0
   18.9350   36.9150  124.5840 C   0  0  0  0  0  0  0  0  0  0  0  0
   19.2910   35.6670  125.1070 C   0  0  0  0  0  3  0  0  0  0  0  0
   20.6750   37.8800  123.7940 H   0  0  0  0  0  0  0  0  0  0  0  0
   18.5920   33.5570  126.2370 C   0  0  0  0  0  0  0  0  0  0  0  0
   19.4800   32.6500  125.6150 C   0  0  0  0  0  0  0  0  0  0  0  0
   19.7310   31.4060  126.2240 C   0  0  0  0  0  3  0  0  0  0  0  0
   19.1220   31.0710  127.4280 C   0  0  0  0  0  0  0  0  0  0  0  0
   17.9910   33.1880  127.4560 C   0  0  0  0  0  3  0  0  0  0  0  0
   18.2510   31.9530  128.0530 C   0  0  0  0  0  3  0  0  0  0  0  0
   20.1530   32.9410  124.2900 C   0  0  0  0  0  2  0  0  0  0  0  0
   21.6140   32.5180  124.2860 C   0  0  0  0  0  1  0  0  0  0  0  0
   19.4070   29.8520  127.9670 O   0  0  0  0  0  0  0  0  0  0  0  0
   18.9030   29.7530  128.7910 H   0  0  0  0  0  0  0  0  0  0  0  0
   16.5430   39.6690  123.7370 C   0  0  0  0  0  0  0  0  0  0  0  0
   16.6140   40.8270  123.1010 N   0  0  0  0  0  0  0  0  0  0  0  0
   15.2660   39.4150  124.1820 N   0  0  0  0  0  0  0  0  0  0  0  0
   15.3420   41.3340  123.1440 C   0  0  0  0  0  0  0  0  0  0  0  0
   14.4970   40.4700  123.8020 C   0  0  0  0  0  0  0  0  0  0  0  0
   14.8970   42.6370  122.5500 C   0  0  0  0  0  2  0  0  0  0  0  0
   13.0550   40.7210  124.0420 C   0  0  0  0  0  2  0  0  0  0  0  0
   13.6130   43.1050  123.1890 N   0  0  0  0  0  0  0  0  0  0  0  0
   12.6400   41.9390  123.1580 C   0  0  2  0  0  3  0  0  0  0  0  0
   15.0000   38.5860  124.6970 H   0  0  0  0  0  0  0  0  0  0  0  0
   13.8810   43.7110  124.5240 C   0  0  0  0  0  3  0  0  0  0  0  0
   12.9080   44.8150  124.9680 C   0  0  0  0  0  1  0  0  0  0  0  0
   15.2860   44.3470  124.5330 C   0  0  0  0  0  1  0  0  0  0  0  0
   11.1730   42.3410  123.3860 C   0  0  0  0  0  0  0  0  0  0  0  0
   10.5850   42.0970  124.4420 O   0  0  0  0  0  0  0  0  0  0  0  0
   10.5320   42.9400  122.3330 N   0  0  0  0  0  0  0  0  0  0  0  0
    9.0990   43.1420  122.1570 C   0  0  0  0  0  2  0  0  0  0  0  0
   10.8470   42.9960  120.9140 C   0  0  0  0  0  2  0  0  0  0  0  0
    9.4040   43.4850  120.6870 C   0  0  2  0  0  3  0  0  0  0  0  0
    9.2640   44.9370  120.4000 N   0  0  0  0  0  0  0  0  0  0  0  0
    8.7750   45.2860  119.0650 C   0  0  0  0  0  1  0  0  0  0  0  0
    8.4230   45.5520  121.4270 C   0  0  0  0  0  1  0  0  0  0  0  0
  1  2  1  0  0  0  0
  1 11  1  0  0  0  0
  3  2  2  0  0  0  0
  4  3  1  0  0  0  0
  5  4  1  0  0  0  0
  6  7  1  0  0  0  0
  6  5  2  0  0  0  0
  7  8  1  0  0  0  0
  8  4  2  0  0  0  0
  8  9  1  0  0  0  0
  9  1  2  0  0  0  0
 10  7  1  0  0  0  0
 11 15  1  0  0  0  0
 12 13  1  0  0  0  0
 12 11  2  0  0  0  0
 13 14  2  0  0  0  0
 14 19  1  0  0  0  0
 14 16  1  0  0  0  0
 15 16  2  0  0  0  0
 17 12  1  0  0  0  0
 18 17  1  0  0  0  0
 19 20  1  0  0  0  0
 21  5  1  0  0  0  0
 21 23  1  0  0  0  0
 22 24  1  0  0  0  0
 22 21  2  0  0  0  0
 23 30  1  0  0  0  0
 24 25  2  0  0  0  0
 25 27  1  0  0  0  0
 25 23  1  0  0  0  0
 26 24  1  0  0  0  0
 26 28  1  0  0  0  0
 28 31  1  0  0  0  0
 29 28  1  0  0  0  0
 29 34  1  1  0  0  0
 29 27  1  0  0  0  0
 31 33  1  0  0  0  0
 31 32  1  0  0  0  0
 34 35  2  0  0  0  0
 36 34  1  0  0  0  0
 37 36  1  0  0  0  0
 38 36  1  0  0  0  0
 39 40  1  1  0  0  0
 39 38  1  0  0  0  0
 39 37  1  0  0  0  0
 40 42  1  0  0  0  0
 41 40  1  0  0  0  0
M  END
>  <minimizedAffinity>
-9.6066494

>  <CNNscore>
0.173316315

>  <CNNaffinity>
6.62473679

$$$$
