
 OpenBabel08012605113D

 31 34  0  0  1  0  0  0  0  0999 V2000
   15.2800   36.9440  124.7550 C   0  0  0  0  0  0  0  0  0  0  0  0
   15.0280   35.9170  125.3830 O   0  0  0  0  0  0  0  0  0  0  0  0
   16.4090   37.1150  123.9540 N   0  0  0  0  0  0  0  0  0  0  0  0
   17.5220   36.1920  124.1110 C   0  0  0  0  0  2  0  0  0  0  0  0
   18.6510   36.8790  124.8800 C   0  0  0  0  0  2  0  0  0  0  0  0
   19.0680   38.2080  124.2120 C   0  0  1  0  0  3  0  0  0  0  0  0
   17.8290   39.1030  123.9700 C   0  0  0  0  0  2  0  0  0  0  0  0
   16.7380   38.3360  123.2260 C   0  0  0  0  0  2  0  0  0  0  0  0
   14.2320   38.0720  124.8290 C   0  0  0  0  0  0  0  0  0  0  0  0
   13.7320   38.3880  125.8980 O   0  0  0  0  0  0  0  0  0  0  0  0
   13.9620   38.5840  123.5730 N   0  0  0  0  0  0  0  0  0  0  0  0
   14.4110   38.0820  122.8110 H   0  0  0  0  0  0  0  0  0  0  0  0
   13.0820   39.6300  123.2390 C   0  0  0  0  0  0  0  0  0  0  0  0
   12.1080   39.9660  124.1980 C   0  0  0  0  0  3  0  0  0  0  0  0
   13.1410   40.3140  122.0170 C   0  0  0  0  0  3  0  0  0  0  0  0
   11.1710   40.9900  123.9770 C   0  0  0  0  0  3  0  0  0  0  0  0
   12.1960   41.3210  121.8360 C   0  0  0  0  0  0  0  0  0  0  0  0
   11.2250   41.6780  122.7610 C   0  0  0  0  0  0  0  0  0  0  0  0
   12.0450   42.1280  120.7410 O   0  0  0  0  0  0  0  0  0  0  0  0
   10.4590   42.7020  122.2670 N   0  0  0  0  0  0  0  0  0  0  0  0
   10.9950   42.9100  121.0920 C   0  0  0  0  0  0  0  0  0  0  0  0
   10.6290   43.8000  120.2010 O   0  0  0  0  0  0  0  0  0  0  0  0
   11.2590   43.6500  119.4790 H   0  0  0  0  0  0  0  0  0  0  0  0
   20.1310   38.9160  125.0730 C   0  0  0  0  0  2  0  0  0  0  0  0
   19.5480   39.8030  126.1470 C   0  0  0  0  0  0  0  0  0  0  0  0
   20.0530   39.7610  127.4560 C   0  0  0  0  0  3  0  0  0  0  0  0
   18.4990   40.6860  125.8470 C   0  0  0  0  0  3  0  0  0  0  0  0
   19.5200   40.5870  128.4440 C   0  0  0  0  0  3  0  0  0  0  0  0
   17.9670   41.5120  126.8390 C   0  0  0  0  0  3  0  0  0  0  0  0
   18.4820   41.4550  128.1270 C   0  0  0  0  0  0  0  0  0  0  0  0
   17.9710   42.2490  129.0780 F   0  0  0  0  0  0  0  0  0  0  0  0
  1  9  1  0  0  0  0
  1  2  2  0  0  0  0
  3  4  1  0  0  0  0
  3  1  1  0  0  0  0
  4  5  1  0  0  0  0
  6  5  1  0  0  0  0
  6 24  1  1  0  0  0
  7  6  1  0  0  0  0
  8  3  1  0  0  0  0
  8  7  1  0  0  0  0
  9 10  2  0  0  0  0
 11  9  1  0  0  0  0
 12 11  1  0  0  0  0
 13 11  1  0  0  0  0
 13 14  1  0  0  0  0
 15 13  2  0  0  0  0
 16 14  2  0  0  0  0
 17 15  1  0  0  0  0
 17 18  2  0  0  0  0
 18 16  1  0  0  0  0
 19 21  1  0  0  0  0
 19 17  1  0  0  0  0
 20 18  1  0  0  0  0
 21 20  2  0  0  0  0
 22 21  1  0  0  0  0
 23 22  1  0  0  0  0
 24 25  1  0  0  0  0
 25 26  1  0  0  0  0
 26 28  2  0  0  0  0
 27 25  2  0  0  0  0
 27 29  1  0  0  0  0
 29 30  2  0  0  0  0
 30 28  1  0  0  0  0
 30 31  1  0  0  0  0
M  END
>  <minimizedAffinity>
-8.88658428

>  <CNNscore>
0.327648044

>  <CNNaffinity>
5.30861712

$$$$
