
 OpenBabel08012607123D

 40 42  0  0  1  0  0  0  0  0999 V2000
   20.5390   37.2580  124.2940 C   0  0  0  0  0  2  0  0  0  0  0  0
   20.2240   35.9240  124.9730 C   0  0  0  0  0  2  0  0  0  0  0  0
   19.0560   35.9590  125.9670 C   0  0  0  0  0  2  0  0  0  0  0  0
   18.2670   34.6490  126.0300 C   0  0  0  0  0  2  0  0  0  0  0  0
   18.7690   33.6910  127.1150 C   0  0  0  0  0  2  0  0  0  0  0  0
   18.8530   32.2380  126.6470 C   0  0  0  0  0  2  0  0  0  0  0  0
   18.5320   31.2610  127.7580 C   0  0  0  0  0  0  0  0  0  0  0  0
   17.8570   30.2430  127.6240 O   0  0  0  0  0  0  0  0  0  0  0  0
   19.0740   31.6210  128.9720 N   0  0  0  0  0  0  0  0  0  0  0  0
   19.8900   32.2220  129.0390 H   0  0  0  0  0  0  0  0  0  0  0  0
   18.9190   30.6640  130.0040 O   0  0  0  0  0  0  0  0  0  0  0  0
   18.3730   29.9740  129.5680 H   0  0  0  0  0  0  0  0  0  0  0  0
   19.6650   38.4130  124.7670 C   0  0  0  0  0  0  0  0  0  0  0  0
   19.8400   38.9650  125.8460 O   0  0  0  0  0  0  0  0  0  0  0  0
   18.6720   38.7060  123.8440 N   0  0  0  0  0  0  0  0  0  0  0  0
   18.6530   38.1420  123.0040 H   0  0  0  0  0  0  0  0  0  0  0  0
   17.6870   39.7120  123.9300 C   0  0  0  0  0  0  0  0  0  0  0  0
   16.9090   39.7440  125.0930 C   0  0  0  0  0  3  0  0  0  0  0  0
   17.4470   40.6590  122.9350 C   0  0  0  0  0  3  0  0  0  0  0  0
   15.9040   40.7020  125.2560 C   0  0  0  0  0  3  0  0  0  0  0  0
   16.4440   41.6220  123.0970 C   0  0  0  0  0  3  0  0  0  0  0  0
   15.6600   41.6540  124.2570 C   0  0  0  0  0  0  0  0  0  0  0  0
   14.5860   42.6970  124.4370 C   0  0  0  0  0  2  0  0  0  0  0  0
   13.6840   42.8310  123.2940 N   0  0  0  0  0  0  0  0  0  0  0  0
   13.2400   43.7460  123.3240 H   0  0  0  0  0  0  0  0  0  0  0  0
   12.6100   41.8070  123.2310 C   0  0  2  0  0  3  0  0  0  0  0  0
   12.4170   41.2110  121.8170 C   0  0  0  0  0  0  0  0  0  0  0  0
   12.2370   41.8380  120.7790 O   0  0  0  0  0  0  0  0  0  0  0  0
   12.4660   39.8430  121.8900 O   0  0  0  0  0  0  0  0  0  0  0  0
   13.6770   39.3020  122.4160 C   0  0  0  0  0  3  0  0  0  0  0  0
   14.4510   38.5020  121.3730 C   0  0  0  0  0  2  0  0  0  0  0  0
   13.3480   38.2400  123.4580 C   0  0  0  0  0  2  0  0  0  0  0  0
   15.2690   37.4940  122.1760 C   0  0  0  0  0  2  0  0  0  0  0  0
   14.6350   37.4370  123.5650 C   0  0  0  0  0  2  0  0  0  0  0  0
   11.3010   42.4110  123.7240 C   0  0  0  0  0  0  0  0  0  0  0  0
   11.2230   43.7670  124.0840 C   0  0  0  0  0  3  0  0  0  0  0  0
   10.1450   41.6210  123.8180 C   0  0  0  0  0  3  0  0  0  0  0  0
   10.0180   44.3190  124.5180 C   0  0  0  0  0  3  0  0  0  0  0  0
    8.9400   42.1760  124.2540 C   0  0  0  0  0  3  0  0  0  0  0  0
    8.8770   43.5240  124.6020 C   0  0  0  0  0  3  0  0  0  0  0  0
  1 13  1  0  0  0  0
  1  2  1  0  0  0  0
  2  3  1  0  0  0  0
  3  4  1  0  0  0  0
  4  5  1  0  0  0  0
  6  5  1  0  0  0  0
  6  7  1  0  0  0  0
  7  9  1  0  0  0  0
  8  7  2  0  0  0  0
  9 10  1  0  0  0  0
  9 11  1  0  0  0  0
 12 11  1  0  0  0  0
 13 14  2  0  0  0  0
 15 17  1  0  0  0  0
 15 13  1  0  0  0  0
 16 15  1  0  0  0  0
 17 18  1  0  0  0  0
 18 20  2  0  0  0  0
 19 21  1  0  0  0  0
 19 17  2  0  0  0  0
 21 22  2  0  0  0  0
 22 23  1  0  0  0  0
 22 20  1  0  0  0  0
 24 25  1  0  0  0  0
 24 23  1  0  0  0  0
 26 27  1  6  0  0  0
 26 24  1  0  0  0  0
 26 35  1  0  0  0  0
 27 29  1  0  0  0  0
 28 27  2  0  0  0  0
 29 30  1  0  0  0  0
 30 32  1  0  0  0  0
 31 33  1  0  0  0  0
 31 30  1  0  0  0  0
 32 34  1  0  0  0  0
 33 34  1  0  0  0  0
 35 37  2  0  0  0  0
 35 36  1  0  0  0  0
 36 38  2  0  0  0  0
 37 39  1  0  0  0  0
 38 40  1  0  0  0  0
 39 40  2  0  0  0  0
M  END
>  <minimizedAffinity>
-7.70482063

>  <CNNscore>
0.264446944

>  <CNNaffinity>
6.09222412

$$$$
