
 OpenBabel08012618483D

 24 25  0  0  0  0  0  0  0  0999 V2000
   18.4010   34.8040  125.8250 C   0  0  0  0  0  0  0  0  0  0  0  0
   19.6140   35.4360  125.5210 C   0  0  0  0  0  3  0  0  0  0  0  0
   19.5910   36.6530  124.8510 C   0  0  0  0  0  0  0  0  0  0  0  0
   21.0700   37.4450  124.4760 Cl  0  0  0  0  0  0  0  0  0  0  0  0
   18.3800   37.2360  124.4760 C   0  0  0  0  0  3  0  0  0  0  0  0
   17.1450   36.6170  124.7600 C   0  0  0  0  0  0  0  0  0  0  0  0
   17.1720   35.3880  125.4550 C   0  0  0  0  0  0  0  0  0  0  0  0
   18.4460   33.5230  126.5370 N   0  0  0  0  0  0  0  0  0  0  0  0
   19.0530   33.4740  127.6130 O   0  0  0  0  0  0  0  0  0  0  0  0
   17.8700   32.5600  126.0060 O   0  0  0  0  0  0  0  0  0  0  0  0
   15.9510   34.8320  125.7630 O   0  0  0  0  0  0  0  0  0  0  0  0
   16.0670   33.9090  126.0850 H   0  0  0  0  0  0  0  0  0  0  0  0
   15.8900   37.2680  124.3000 C   0  0  0  0  0  0  0  0  0  0  0  0
   15.6750   37.4440  122.9150 C   0  0  0  0  0  3  0  0  0  0  0  0
   14.9050   37.7670  125.1750 C   0  0  0  0  0  0  0  0  0  0  0  0
   14.5450   38.1110  122.4270 C   0  0  0  0  0  0  0  0  0  0  0  0
   13.7840   38.4340  124.6660 C   0  0  0  0  0  0  0  0  0  0  0  0
   13.5920   38.6190  123.2960 C   0  0  0  0  0  3  0  0  0  0  0  0
   14.3410   38.3030  120.7300 Cl  0  0  0  0  0  0  0  0  0  0  0  0
   15.0410   37.6330  126.5300 O   0  0  0  0  0  0  0  0  0  0  0  0
   15.3290   36.7110  126.6930 H   0  0  0  0  0  0  0  0  0  0  0  0
   12.7670   38.9400  125.5640 N   0  0  0  0  0  0  0  0  0  0  0  0
   12.1970   39.9920  125.2430 O   0  0  0  0  0  0  0  0  0  0  0  0
   12.5940   38.3140  126.6190 O   0  0  0  0  0  0  0  0  0  0  0  0
  1  8  1  0  0  0  0
  2  1  1  0  0  0  0
  3  2  2  0  0  0  0
  4  3  1  0  0  0  0
  5  6  2  0  0  0  0
  5  3  1  0  0  0  0
  6  7  1  0  0  0  0
  7 11  1  0  0  0  0
  7  1  2  0  0  0  0
  8  9  2  0  0  0  0
 10  8  2  0  0  0  0
 11 12  1  0  0  0  0
 13  6  1  0  0  0  0
 13 15  1  0  0  0  0
 14 13  2  0  0  0  0
 15 20  1  0  0  0  0
 16 14  1  0  0  0  0
 16 18  2  0  0  0  0
 17 15  2  0  0  0  0
 17 22  1  0  0  0  0
 18 17  1  0  0  0  0
 19 16  1  0  0  0  0
 20 21  1  0  0  0  0
 22 24  2  0  0  0  0
 23 22  2  0  0  0  0
M  END
>  <minimizedAffinity>
-7.29495716

>  <CNNscore>
0.559706092

>  <CNNaffinity>
5.63946962

$$$$
