
 OpenBabel08012611143D

 59 64  0  0  1  0  0  0  0  0999 V2000
   13.1130   38.5210  125.2940 C   0  0  0  0  0  0  0  0  0  0  0  0
   12.8580   39.6370  124.4850 C   0  0  0  0  0  3  0  0  0  0  0  0
   13.1600   39.6090  123.1190 C   0  0  0  0  0  0  0  0  0  0  0  0
   13.8050   38.4770  122.5900 C   0  0  0  0  0  0  0  0  0  0  0  0
   14.4530   38.4190  120.9820 Cl  0  0  0  0  0  0  0  0  0  0  0  0
   14.0800   37.3770  123.4140 C   0  0  0  0  0  3  0  0  0  0  0  0
   13.7380   37.3840  124.7780 C   0  0  0  0  0  0  0  0  0  0  0  0
   12.7950   38.5660  126.6240 O   0  0  0  0  0  0  0  0  0  0  0  0
   12.6080   37.2480  127.1460 C   0  0  0  0  0  1  0  0  0  0  0  0
   14.0810   36.1810  125.6230 C   0  0  0  0  0  2  0  0  0  0  0  0
   15.3550   35.5710  125.2270 N   0  0  0  0  0  0  0  0  0  0  0  0
   15.6600   35.9980  124.3500 H   0  0  0  0  0  0  0  0  0  0  0  0
   16.4260   35.7300  126.2350 C   0  0  0  0  0  2  0  0  0  0  0  0
   16.9650   34.3560  126.7570 C   0  0  2  0  0  3  0  0  0  0  0  0
   17.1550   34.4620  128.1770 O   0  0  0  0  0  0  0  0  0  0  0  0
   16.9830   35.4080  128.3810 H   0  0  0  0  0  0  0  0  0  0  0  0
   18.2120   33.7190  126.1480 C   0  0  0  0  0  0  0  0  0  0  0  0
   18.8290   34.2560  124.9980 C   0  0  0  0  0  3  0  0  0  0  0  0
   18.7740   32.5360  126.7080 C   0  0  0  0  0  0  0  0  0  0  0  0
   19.9690   33.6710  124.4270 C   0  0  0  0  0  3  0  0  0  0  0  0
   18.2120   31.8350  127.8790 C   0  0  0  0  0  3  0  0  0  0  0  0
   19.9270   31.9680  126.1310 C   0  0  0  0  0  0  0  0  0  0  0  0
   20.5130   32.5290  124.9980 C   0  0  0  0  0  0  0  0  0  0  0  0
   18.7830   30.7300  128.3760 C   0  0  0  0  0  3  0  0  0  0  0  0
   20.5030   30.8170  126.6880 N   0  0  0  0  0  0  0  0  0  0  0  0
   20.0030   30.1600  127.7730 C   0  0  0  0  0  0  0  0  0  0  0  0
   20.5140   29.1480  128.2370 O   0  0  0  0  0  0  0  0  0  0  0  0
   21.3410   30.4480  126.2600 H   0  0  0  0  0  0  0  0  0  0  0  0
   21.6280   31.9350  124.4600 O   0  0  0  0  0  0  0  0  0  0  0  0
   21.7960   32.3170  123.5830 H   0  0  0  0  0  0  0  0  0  0  0  0
   12.8390   40.7620  122.3610 N   0  0  0  0  0  0  0  0  0  0  0  0
   11.5920   41.3780  122.4240 C   0  0  0  0  0  0  0  0  0  0  0  0
   10.7210   41.1070  123.2440 O   0  0  0  0  0  0  0  0  0  0  0  0
   13.6050   41.3790  122.1180 H   0  0  0  0  0  0  0  0  0  0  0  0
   11.4400   42.4720  121.3780 C   0  0  0  0  0  2  0  0  0  0  0  0
   12.1550   43.7580  121.8160 C   0  0  0  0  0  2  0  0  0  0  0  0
   13.4290   43.6060  122.5430 N   0  0  0  0  0  0  0  0  0  0  0  0
   14.6150   43.8180  121.7110 C   0  0  0  0  0  2  0  0  0  0  0  0
   13.4770   44.3980  123.7750 C   0  0  0  0  0  2  0  0  0  0  0  0
   15.8830   43.4450  122.4770 C   0  0  0  0  0  2  0  0  0  0  0  0
   14.6930   44.0080  124.6080 C   0  0  0  0  0  2  0  0  0  0  0  0
   15.9820   44.1980  123.8040 C   0  0  1  0  0  3  0  0  0  0  0  0
   17.1280   43.6740  124.5060 O   0  0  0  0  0  0  0  0  0  0  0  0
   17.0430   42.3830  124.9290 C   0  0  0  0  0  0  0  0  0  0  0  0
   16.2830   42.0070  125.8060 O   0  0  0  0  0  0  0  0  0  0  0  0
   17.9250   41.6410  124.2000 N   0  0  0  0  0  0  0  0  0  0  0  0
   18.4900   42.1950  123.5690 H   0  0  0  0  0  0  0  0  0  0  0  0
   18.1240   40.2420  124.2040 C   0  0  0  0  0  0  0  0  0  0  0  0
   17.4430   39.3880  123.3260 C   0  0  0  0  0  3  0  0  0  0  0  0
   19.0610   39.6890  125.1110 C   0  0  0  0  0  0  0  0  0  0  0  0
   17.6850   38.0120  123.3310 C   0  0  0  0  0  3  0  0  0  0  0  0
   19.2940   38.3010  125.0950 C   0  0  0  0  0  3  0  0  0  0  0  0
   18.6100   37.4680  124.2140 C   0  0  0  0  0  3  0  0  0  0  0  0
   19.7890   40.5020  126.0970 C   0  0  0  0  0  0  0  0  0  0  0  0
   19.8290   40.1190  127.4510 C   0  0  0  0  0  3  0  0  0  0  0  0
   20.4660   41.6690  125.7090 C   0  0  0  0  0  3  0  0  0  0  0  0
   20.5090   40.8910  128.3940 C   0  0  0  0  0  3  0  0  0  0  0  0
   21.1510   42.4370  126.6530 C   0  0  0  0  0  3  0  0  0  0  0  0
   21.1670   42.0520  127.9960 C   0  0  0  0  0  3  0  0  0  0  0  0
  1  8  1  0  0  0  0
  2  1  2  0  0  0  0
  3  2  1  0  0  0  0
  4  3  2  0  0  0  0
  4  6  1  0  0  0  0
  5  4  1  0  0  0  0
  6  7  2  0  0  0  0
  7  1  1  0  0  0  0
  7 10  1  0  0  0  0
  8  9  1  0  0  0  0
 11 10  1  0  0  0  0
 11 13  1  0  0  0  0
 12 11  1  0  0  0  0
 14 13  1  6  0  0  0
 14 15  1  0  0  0  0
 15 16  1  0  0  0  0
 17 19  1  0  0  0  0
 17 14  1  0  0  0  0
 18 17  2  0  0  0  0
 19 21  1  0  0  0  0
 20 18  1  0  0  0  0
 20 23  2  0  0  0  0
 21 24  2  0  0  0  0
 22 25  1  0  0  0  0
 22 19  2  0  0  0  0
 23 22  1  0  0  0  0
 25 26  1  0  0  0  0
 26 27  2  0  0  0  0
 26 24  1  0  0  0  0
 28 25  1  0  0  0  0
 29 23  1  0  0  0  0
 30 29  1  0  0  0  0
 31 32  1  0  0  0  0
 31  3  1  0  0  0  0
 32 33  2  0  0  0  0
 34 31  1  0  0  0  0
 35 36  1  0  0  0  0
 35 32  1  0  0  0  0
 36 37  1  0  0  0  0
 37 39  1  0  0  0  0
 38 40  1  0  0  0  0
 38 37  1  0  0  0  0
 39 41  1  0  0  0  0
 40 42  1  0  0  0  0
 42 43  1  1  0  0  0
 42 41  1  0  0  0  0
 43 44  1  0  0  0  0
 44 45  2  0  0  0  0
 46 48  1  0  0  0  0
 46 44  1  0  0  0  0
 47 46  1  0  0  0  0
 48 50  1  0  0  0  0
 49 51  1  0  0  0  0
 49 48  2  0  0  0  0
 50 54  1  0  0  0  0
 51 53  2  0  0  0  0
 52 50  2  0  0  0  0
 53 52  1  0  0  0  0
 54 55  1  0  0  0  0
 55 57  2  0  0  0  0
 56 54  2  0  0  0  0
 56 58  1  0  0  0  0
 58 59  2  0  0  0  0
 59 57  1  0  0  0  0
M  END
>  <minimizedAffinity>
-11.2781134

>  <CNNscore>
0.138936073

>  <CNNaffinity>
7.2434845

$$$$
