
 OpenBabel08012613533D

 26 29  0  0  1  0  0  0  0  0999 V2000
   16.0760   38.3140  122.8950 C   0  0  0  0  0  0  0  0  0  0  0  0
   15.0530   37.6730  122.1760 C   0  0  0  0  0  3  0  0  0  0  0  0
   14.0970   38.5110  121.7730 N   0  0  0  0  0  0  0  0  0  0  0  0
   14.5160   39.7340  122.2160 N   0  0  0  0  0  0  0  0  0  0  0  0
   13.8480   40.9690  122.0360 C   0  0  0  0  0  0  0  0  0  0  0  0
   14.3810   42.0760  122.6000 C   0  0  0  0  0  0  0  0  0  0  0  0
   13.5900   43.7600  122.4250 Br  0  0  0  0  0  0  0  0  0  0  0  0
   15.6780   41.8880  123.3680 C   0  0  0  0  0  0  0  0  0  0  0  0
   16.2930   40.7430  123.4950 N   0  0  0  0  0  0  0  0  0  0  0  0
   15.7120   39.6460  122.9290 C   0  0  0  0  0  0  0  0  0  0  0  0
   17.2460   37.6710  123.4700 C   0  0  0  0  0  0  0  0  0  0  0  0
   18.6960   36.2430  124.2790 N   0  0  0  0  0  0  0  0  0  0  0  0
   17.4430   36.3370  123.7480 C   0  0  0  0  0  3  0  0  0  0  0  0
   19.3330   37.4260  124.3660 N   0  0  0  0  0  0  0  0  0  0  0  0
   18.4440   38.2950  123.8720 C   0  0  0  0  0  3  0  0  0  0  0  0
   19.3590   35.0450  124.7310 C   0  0  0  0  0  1  0  0  0  0  0  0
   16.3560   43.1130  124.0080 C   0  0  2  0  0  3  0  0  0  0  0  0
   16.1930   43.0670  125.5390 C   0  0  0  0  0  2  0  0  0  0  0  0
   15.8320   44.4330  123.4080 C   0  0  0  0  0  2  0  0  0  0  0  0
   15.3310   44.2160  126.0520 C   0  0  0  0  0  2  0  0  0  0  0  0
   16.3390   45.5680  124.1780 N   0  0  0  0  0  0  0  0  0  0  0  0
   15.8430   45.5710  125.5570 C   0  0  0  0  0  2  0  0  0  0  0  0
   16.0860   46.4440  123.7210 H   0  0  0  0  0  0  0  0  0  0  0  0
   12.6670   40.9390  121.2850 N   0  0  0  0  0  0  0  0  0  0  0  0
   11.9910   41.6490  121.5500 H   0  0  0  0  0  0  0  0  0  0  0  0
   12.2780   39.9920  121.2360 H   0  0  0  0  0  0  0  0  0  0  0  0
  1 10  2  0  0  0  0
  1 11  1  0  0  0  0
  2  1  1  0  0  0  0
  3  2  2  0  0  0  0
  3  4  1  0  0  0  0
  4 10  1  0  0  0  0
  5  4  1  0  0  0  0
  5  6  2  0  0  0  0
  6  8  1  0  0  0  0
  7  6  1  0  0  0  0
  8  9  2  0  0  0  0
 10  9  1  0  0  0  0
 11 13  2  0  0  0  0
 11 15  1  0  0  0  0
 12 14  1  0  0  0  0
 12 16  1  0  0  0  0
 13 12  1  0  0  0  0
 15 14  2  0  0  0  0
 17  8  1  6  0  0  0
 17 18  1  0  0  0  0
 18 20  1  0  0  0  0
 19 17  1  0  0  0  0
 19 21  1  0  0  0  0
 21 22  1  0  0  0  0
 22 20  1  0  0  0  0
 23 21  1  0  0  0  0
 24 25  1  0  0  0  0
 24  5  1  0  0  0  0
 26 24  1  0  0  0  0
M  END
>  <minimizedAffinity>
-7.08314657

>  <CNNscore>
0.51012969

>  <CNNaffinity>
5.2457633

$$$$
