
 OpenBabel08012612293D

 28 31  0  0  1  0  0  0  0  0999 V2000
   17.8190   38.1550  123.4500 N   0  0  0  0  0  0  0  0  0  0  0  0
   17.0100   36.9230  123.4840 C   0  0  0  0  0  2  0  0  0  0  0  0
   17.3740   35.9610  124.6220 C   0  0  0  0  0  2  0  0  0  0  0  0
   18.8560   36.0760  124.9710 C   0  0  1  0  0  3  0  0  0  0  0  0
   19.2680   37.5120  125.3200 C   0  0  0  0  0  2  0  0  0  0  0  0
   18.2640   38.5410  124.7910 C   0  0  0  0  0  2  0  0  0  0  0  0
   17.0890   39.2270  122.7590 C   0  0  0  0  0  2  0  0  0  0  0  0
   15.6920   39.4390  123.3090 C   0  0  0  0  0  0  0  0  0  0  0  0
   11.5480   41.1710  121.4890 N   0  0  0  0  0  0  0  0  0  0  0  0
   12.3590   40.7250  122.1890 C   0  0  0  0  0  0  0  0  0  0  0  0
   13.3900   40.1780  123.0170 C   0  0  0  0  0  0  0  0  0  0  0  0
   14.6780   39.9790  122.5010 C   0  0  0  0  0  3  0  0  0  0  0  0
   13.1220   39.8410  124.3410 C   0  0  0  0  0  0  0  0  0  0  0  0
   14.1160   39.3090  125.1560 C   0  0  0  0  0  3  0  0  0  0  0  0
   15.3980   39.1100  124.6430 C   0  0  0  0  0  3  0  0  0  0  0  0
   11.8970   40.0230  124.8560 F   0  0  0  0  0  0  0  0  0  0  0  0
   19.2890   35.0910  125.9670 N   0  0  0  0  0  0  0  0  0  0  0  0
   18.6880   35.0360  126.7810 H   0  0  0  0  0  0  0  0  0  0  0  0
   19.8540   33.8730  125.6190 C   0  0  0  0  0  0  0  0  0  0  0  0
   20.4490   33.7050  124.4170 N   0  0  0  0  0  0  0  0  0  0  0  0
   19.8330   32.7730  126.5050 C   0  0  0  0  0  0  0  0  0  0  0  0
   20.9860   32.5150  124.1080 C   0  0  0  0  0  3  0  0  0  0  0  0
   19.3200   32.5930  127.8370 C   0  0  0  0  0  3  0  0  0  0  0  0
   20.4240   31.6020  126.0510 C   0  0  0  0  0  0  0  0  0  0  0  0
   21.0130   31.4130  124.8600 N   0  0  0  0  0  0  0  0  0  0  0  0
   19.5390   31.3210  128.2940 C   0  0  0  0  0  0  0  0  0  0  0  0
   20.3450   30.3320  127.1880 S   0  0  0  0  0  0  0  0  0  0  0  0
   19.0840   30.6940  129.8270 Cl  0  0  0  0  0  0  0  0  0  0  0  0
  1  2  1  0  0  0  0
  1  6  1  0  0  0  0
  2  3  1  0  0  0  0
  3  4  1  0  0  0  0
  4  5  1  0  0  0  0
  4 17  1  1  0  0  0
  6  5  1  0  0  0  0
  7  8  1  0  0  0  0
  7  1  1  0  0  0  0
  8 15  1  0  0  0  0
  9 10  3  0  0  0  0
 10 11  1  0  0  0  0
 11 13  2  0  0  0  0
 12 11  1  0  0  0  0
 12  8  2  0  0  0  0
 13 16  1  0  0  0  0
 13 14  1  0  0  0  0
 15 14  2  0  0  0  0
 17 18  1  0  0  0  0
 19 17  1  0  0  0  0
 19 21  1  0  0  0  0
 20 19  2  0  0  0  0
 21 23  1  0  0  0  0
 22 20  1  0  0  0  0
 22 25  2  0  0  0  0
 23 26  2  0  0  0  0
 24 21  2  0  0  0  0
 24 27  1  0  0  0  0
 25 24  1  0  0  0  0
 26 28  1  0  0  0  0
 27 26  1  0  0  0  0
M  END
>  <minimizedAffinity>
-8.82827377

>  <CNNscore>
0.395783603

>  <CNNaffinity>
6.42168474

$$$$
