
 OpenBabel08012613193D

 33 36  0  0  1  0  0  0  0  0999 V2000
   16.4040   36.4910  124.0450 O   0  0  0  0  0  0  0  0  0  0  0  0
   17.7680   36.7320  123.7000 C   0  0  0  0  0  2  0  0  0  0  0  0
   18.6400   36.9520  124.9620 C   0  0  1  0  0  0  0  0  0  0  0  0
   18.6610   32.4790  126.8190 C   0  0  0  0  0  0  0  0  0  0  0  0
   18.1500   33.7950  126.7680 C   0  0  0  0  0  0  0  0  0  0  0  0
   19.6910   32.1260  125.9300 C   0  0  0  0  0  0  0  0  0  0  0  0
   18.7590   34.7450  125.9200 C   0  0  0  0  0  0  0  0  0  0  0  0
   20.2840   33.0590  125.0610 C   0  0  0  0  0  0  0  0  0  0  0  0
   19.8450   34.3990  125.0970 C   0  0  0  0  0  0  0  0  0  0  0  0
   18.2410   36.0160  125.9790 O   0  0  0  0  0  0  0  0  0  0  0  0
   20.5100   35.4480  124.2420 C   0  0  0  0  0  2  0  0  0  0  0  0
   20.1460   36.8480  124.7000 C   0  0  0  0  0  2  0  0  0  0  0  0
   18.0960   31.4720  127.7880 C   0  0  0  0  0  1  0  0  0  0  0  0
   16.9990   34.2140  127.6520 C   0  0  0  0  0  1  0  0  0  0  0  0
   21.4140   32.6310  124.1600 C   0  0  0  0  0  1  0  0  0  0  0  0
   18.3530   38.3430  125.5520 C   0  0  0  0  0  1  0  0  0  0  0  0
   20.1710   30.8410  125.8790 O   0  0  0  0  0  0  0  0  0  0  0  0
   19.4820   30.2370  126.1960 H   0  0  0  0  0  0  0  0  0  0  0  0
   15.4180   37.2760  123.5210 C   0  0  0  0  0  0  0  0  0  0  0  0
   14.4230   37.6300  124.4350 C   0  0  0  0  0  3  0  0  0  0  0  0
   15.3070   37.7100  122.2030 C   0  0  0  0  0  3  0  0  0  0  0  0
   13.3380   38.4200  124.0470 C   0  0  0  0  0  3  0  0  0  0  0  0
   14.2210   38.5030  121.8090 C   0  0  0  0  0  3  0  0  0  0  0  0
   13.2270   38.8640  122.7250 C   0  0  0  0  0  0  0  0  0  0  0  0
   12.0620   39.7320  122.3050 C   0  0  0  0  0  2  0  0  0  0  0  0
   12.2140   41.1750  122.7850 C   0  0  2  0  0  3  0  0  0  0  0  0
   10.9210   41.6050  124.0090 S   0  0  0  0  0  0  0  0  0  0  0  0
   12.0150   42.1900  121.6730 C   0  0  0  0  0  0  0  0  0  0  0  0
   10.4840   43.0720  123.1790 C   0  0  0  0  0  0  0  0  0  0  0  0
   11.2540   43.2430  122.0810 N   0  0  0  0  0  0  0  0  0  0  0  0
   12.4630   42.1110  120.5380 O   0  0  0  0  0  0  0  0  0  0  0  0
    9.5720   43.8030  123.5240 O   0  0  0  0  0  0  0  0  0  0  0  0
   11.0030   43.9640  121.4220 H   0  0  0  0  0  0  0  0  0  0  0  0
  2  1  1  0  0  0  0
  2  3  1  0  0  0  0
  3 16  1  1  0  0  0
  3 10  1  0  0  0  0
  4 13  1  0  0  0  0
  5  4  1  0  0  0  0
  5 14  1  0  0  0  0
  6  4  2  0  0  0  0
  7 10  1  0  0  0  0
  7  5  2  0  0  0  0
  8  9  2  0  0  0  0
  8  6  1  0  0  0  0
  9  7  1  0  0  0  0
 11 12  1  0  0  0  0
 11  9  1  0  0  0  0
 12  3  1  0  0  0  0
 15  8  1  0  0  0  0
 17  6  1  0  0  0  0
 17 18  1  0  0  0  0
 19  1  1  0  0  0  0
 19 20  1  0  0  0  0
 21 19  2  0  0  0  0
 22 20  2  0  0  0  0
 23 21  1  0  0  0  0
 23 24  2  0  0  0  0
 24 22  1  0  0  0  0
 25 24  1  0  0  0  0
 26 25  1  6  0  0  0
 26 27  1  0  0  0  0
 28 30  1  0  0  0  0
 28 26  1  0  0  0  0
 29 32  2  0  0  0  0
 29 27  1  0  0  0  0
 30 29  1  0  0  0  0
 31 28  2  0  0  0  0
 33 30  1  0  0  0  0
M  END
>  <minimizedAffinity>
-9.38434029

>  <CNNscore>
0.448642522

>  <CNNaffinity>
6.02582788

$$$$
