
 OpenBabel08012616253D

 32 35  0  0  1  0  0  0  0  0999 V2000
   18.6070   35.3740  125.9210 N   0  0  0  0  0  0  0  0  0  0  0  0
   18.1280   36.3370  125.0690 C   0  0  0  0  0  0  0  0  0  0  0  0
   17.4410   35.9930  123.7860 C   0  0  0  0  0  3  0  0  0  0  0  0
   16.9970   36.9870  123.0090 C   0  0  0  0  0  3  0  0  0  0  0  0
   17.1900   38.3210  123.4180 C   0  0  0  0  0  0  0  0  0  0  0  0
   16.8570   39.4520  122.8370 N   0  0  0  0  0  0  0  0  0  0  0  0
   17.3080   40.4270  123.6870 C   0  0  0  0  0  3  0  0  0  0  0  0
   17.9180   39.8990  124.8130 C   0  0  0  0  0  0  0  0  0  0  0  0
   17.8430   38.5280  124.6220 N   0  0  0  0  0  0  0  0  0  0  0  0
   18.3280   37.5670  125.4660 N   0  0  0  0  0  0  0  0  0  0  0  0
   18.9700   35.8030  126.7700 H   0  0  0  0  0  0  0  0  0  0  0  0
   18.0020   34.0670  126.1430 C   0  0  1  0  0  3  0  0  0  0  0  0
   19.1170   31.9610  128.0590 C   0  0  1  0  0  3  0  0  0  0  0  0
   19.8990   32.5170  126.8410 C   0  0  0  0  0  2  0  0  0  0  0  0
   17.6660   32.4850  128.0970 C   0  0  0  0  0  2  0  0  0  0  0  0
   18.9880   32.9710  125.7030 C   0  0  0  0  0  2  0  0  0  0  0  0
   17.5860   33.9290  127.6150 C   0  0  0  0  0  2  0  0  0  0  0  0
   19.2300   30.4140  128.2180 C   0  0  0  0  0  0  0  0  0  0  0  0
   20.5240   29.8290  127.6400 C   0  0  0  0  0  1  0  0  0  0  0  0
   18.0190   29.6940  127.6090 C   0  0  0  0  0  1  0  0  0  0  0  0
   19.2210   30.1340  129.6250 O   0  0  0  0  0  0  0  0  0  0  0  0
   19.2670   29.1700  129.7460 H   0  0  0  0  0  0  0  0  0  0  0  0
   18.5380   40.5750  125.9550 C   0  0  0  0  0  0  0  0  0  0  0  0
   19.9290   40.5370  126.1220 C   0  0  0  0  0  3  0  0  0  0  0  0
   17.7730   41.2890  126.8880 C   0  0  0  0  0  3  0  0  0  0  0  0
   20.5390   41.1880  127.1970 C   0  0  0  0  0  3  0  0  0  0  0  0
   18.3730   41.9390  127.9810 C   0  0  0  0  0  0  0  0  0  0  0  0
   19.7660   41.8870  128.1210 C   0  0  0  0  0  3  0  0  0  0  0  0
   17.5210   42.7060  128.9610 C   0  0  0  0  0  0  0  0  0  0  0  0
   16.4740   41.9690  129.4260 F   0  0  0  0  0  0  0  0  0  0  0  0
   16.9730   43.8360  128.4320 F   0  0  0  0  0  0  0  0  0  0  0  0
   18.2100   43.1120  130.0640 F   0  0  0  0  0  0  0  0  0  0  0  0
  1 11  1  0  0  0  0
  2 10  2  0  0  0  0
  2  1  1  0  0  0  0
  3  2  1  0  0  0  0
  4  5  1  0  0  0  0
  4  3  2  0  0  0  0
  5  9  1  0  0  0  0
  6  5  2  0  0  0  0
  6  7  1  0  0  0  0
  7  8  2  0  0  0  0
  8 23  1  0  0  0  0
  9  8  1  0  0  0  0
  9 10  1  0  0  0  0
 12  1  1  1  0  0  0
 12 17  1  0  0  0  0
 13 15  1  0  0  0  0
 13 18  1  6  0  0  0
 14 13  1  0  0  0  0
 16 12  1  0  0  0  0
 16 14  1  0  0  0  0
 17 15  1  0  0  0  0
 18 21  1  0  0  0  0
 19 18  1  0  0  0  0
 20 18  1  0  0  0  0
 21 22  1  0  0  0  0
 23 24  2  0  0  0  0
 23 25  1  0  0  0  0
 24 26  1  0  0  0  0
 25 27  2  0  0  0  0
 26 28  2  0  0  0  0
 27 28  1  0  0  0  0
 27 29  1  0  0  0  0
 29 30  1  0  0  0  0
 29 32  1  0  0  0  0
 31 29  1  0  0  0  0
M  END
>  <minimizedAffinity>
-9.35818863

>  <CNNscore>
0.358921438

>  <CNNaffinity>
6.15897226

$$$$
