
 OpenBabel08012608223D

 37 39  0  0  1  0  0  0  0  0999 V2000
   17.4100   37.9840  124.0060 C   0  0  0  0  0  0  0  0  0  0  0  0
   18.4530   38.8370  124.1260 C   0  0  1  0  0  3  0  0  0  0  0  0
   19.8630   38.4260  124.4690 C   0  0  0  0  0  1  0  0  0  0  0  0
   18.2640   40.1890  123.8780 N   0  0  0  0  0  0  0  0  0  0  0  0
   17.0890   40.7420  123.3930 C   0  0  0  0  0  0  0  0  0  0  0  0
   17.1570   42.1980  123.0100 C   0  0  0  0  0  1  0  0  0  0  0  0
   15.9950   39.9580  123.2520 C   0  0  0  0  0  0  0  0  0  0  0  0
   16.0230   38.4760  123.6030 C   0  0  0  0  0  0  0  0  0  0  0  0
   19.0810   40.7920  123.9320 H   0  0  0  0  0  0  0  0  0  0  0  0
   17.5040   36.5220  124.2180 C   0  0  0  0  0  0  0  0  0  0  0  0
   17.1400   35.7000  123.3900 O   0  0  0  0  0  0  0  0  0  0  0  0
   17.9580   36.2570  125.4630 O   0  0  0  0  0  0  0  0  0  0  0  0
   19.0650   35.3430  125.5530 C   0  0  0  0  0  2  0  0  0  0  0  0
   18.5690   34.0260  126.1540 C   0  0  0  0  0  2  0  0  0  0  0  0
   18.8920   32.8910  125.3460 O   0  0  0  0  0  0  0  0  0  0  0  0
   19.8350   33.1770  124.3220 C   0  0  0  0  0  1  0  0  0  0  0  0
   14.9930   38.1550  124.6940 C   0  0  0  0  0  0  0  0  0  0  0  0
   13.7440   38.8010  124.6890 C   0  0  0  0  0  3  0  0  0  0  0  0
   15.2670   37.2190  125.7090 C   0  0  0  0  0  3  0  0  0  0  0  0
   12.7860   38.5200  125.6660 C   0  0  0  0  0  3  0  0  0  0  0  0
   14.2990   36.9420  126.6860 C   0  0  0  0  0  0  0  0  0  0  0  0
   13.0580   37.5900  126.6670 C   0  0  0  0  0  3  0  0  0  0  0  0
   14.5860   35.9560  127.7370 N   0  0  0  0  0  0  0  0  0  0  0  0
   13.7900   35.8760  128.6850 O   0  0  0  0  0  0  0  0  0  0  0  0
   15.6050   35.2600  127.6170 O   0  0  0  0  0  0  0  0  0  0  0  0
   14.6990   40.4440  122.7360 C   0  0  0  0  0  0  0  0  0  0  0  0
   14.2250   40.0990  121.6650 O   0  0  0  0  0  0  0  0  0  0  0  0
   14.1060   41.2360  123.6590 O   0  0  0  0  0  0  0  0  0  0  0  0
   13.4720   42.3940  123.1140 C   0  0  0  0  0  2  0  0  0  0  0  0
   11.9780   42.2960  123.2620 C   0  0  0  0  0  3  0  0  0  0  0  0
   11.2140   43.0200  124.0990 C   0  0  0  0  0  3  0  0  0  0  0  0
    9.7520   42.9070  124.2060 C   0  0  0  0  0  0  0  0  0  0  0  0
    8.9410   43.9810  124.5960 C   0  0  0  0  0  3  0  0  0  0  0  0
    9.1420   41.6970  123.8500 C   0  0  0  0  0  3  0  0  0  0  0  0
    7.5510   43.8390  124.6540 C   0  0  0  0  0  3  0  0  0  0  0  0
    7.7550   41.5540  123.9080 C   0  0  0  0  0  3  0  0  0  0  0  0
    6.9590   42.6240  124.3140 C   0  0  0  0  0  3  0  0  0  0  0  0
  1  2  1  0  0  0  0
  1 10  1  0  0  0  0
  2  3  1  6  0  0  0
  4  9  1  0  0  0  0
  4  2  1  0  0  0  0
  5  4  1  0  0  0  0
  6  5  1  0  0  0  0
  7  5  2  0  0  0  0
  7  8  1  0  0  0  0
  8  1  2  0  0  0  0
  8 17  1  0  0  0  0
 10 12  1  0  0  0  0
 11 10  2  0  0  0  0
 12 13  1  0  0  0  0
 13 14  1  0  0  0  0
 15 14  1  0  0  0  0
 16 15  1  0  0  0  0
 17 19  1  0  0  0  0
 18 17  2  0  0  0  0
 18 20  1  0  0  0  0
 19 21  2  0  0  0  0
 20 22  2  0  0  0  0
 21 23  1  0  0  0  0
 22 21  1  0  0  0  0
 23 24  2  0  0  0  0
 25 23  2  0  0  0  0
 26  7  1  0  0  0  0
 26 28  1  0  0  0  0
 27 26  2  0  0  0  0
 29 30  1  0  0  0  0
 29 28  1  0  0  0  0
 30 31  2  0  0  0  0
 31 32  1  0  0  0  0
 32 33  1  0  0  0  0
 33 35  2  0  0  0  0
 34 36  1  0  0  0  0
 34 32  2  0  0  0  0
 36 37  2  0  0  0  0
 37 35  1  0  0  0  0
M  END
>  <minimizedAffinity>
-8.64157486

>  <CNNscore>
0.664267302

>  <CNNaffinity>
6.52798414

$$$$
