
 OpenBabel08012613023D

 37 41  0  0  1  0  0  0  0  0999 V2000
   13.2340   39.8970  123.7670 N   0  0  0  0  0  0  0  0  0  0  0  0
   14.5950   39.4380  123.5050 C   0  0  2  0  0  3  0  0  0  0  0  0
   14.4260   38.9960  122.0290 C   0  0  0  0  0  2  0  0  0  0  0  0
   12.9410   38.4790  121.9950 C   0  0  0  0  0  2  0  0  0  0  0  0
   12.4780   38.6910  123.4570 C   0  0  1  0  0  3  0  0  0  0  0  0
   13.2530   37.7020  124.3000 C   0  0  0  0  0  0  0  0  0  0  0  0
   12.8930   36.5310  124.9220 C   0  0  0  0  0  3  0  0  0  0  0  0
   13.8950   35.8400  125.6150 C   0  0  0  0  0  3  0  0  0  0  0  0
   15.2290   36.3170  125.7000 C   0  0  0  0  0  0  0  0  0  0  0  0
   15.5720   37.5030  125.0240 C   0  0  0  0  0  3  0  0  0  0  0  0
   14.5830   38.1780  124.3400 C   0  0  0  0  0  0  0  0  0  0  0  0
   12.7210   41.1600  123.6450 C   0  0  0  0  0  0  0  0  0  0  0  0
   13.3380   42.1580  124.0200 O   0  0  0  0  0  0  0  0  0  0  0  0
   11.3090   41.2770  123.0610 C   0  0  0  0  0  2  0  0  0  0  0  0
   10.5420   42.2340  123.8420 N   0  0  0  0  0  0  0  0  0  0  0  0
    9.1950   42.0530  124.0520 C   0  0  0  0  0  0  0  0  0  0  0  0
    8.5950   41.0200  123.7720 O   0  0  0  0  0  0  0  0  0  0  0  0
    8.5000   43.2390  124.6620 C   0  0  0  0  0  1  0  0  0  0  0  0
   10.8820   43.1910  123.8000 H   0  0  0  0  0  0  0  0  0  0  0  0
   16.2480   35.6270  126.3730 N   0  0  0  0  0  0  0  0  0  0  0  0
   16.0580   35.3790  127.3350 H   0  0  0  0  0  0  0  0  0  0  0  0
   17.3680   34.9290  125.9390 C   0  0  0  0  0  0  0  0  0  0  0  0
   17.8030   35.2400  124.7150 N   0  0  0  0  0  0  0  0  0  0  0  0
   17.9480   33.9850  126.6930 N   0  0  0  0  0  0  0  0  0  0  0  0
   18.9010   34.5950  124.2770 C   0  0  0  0  0  3  0  0  0  0  0  0
   19.0210   33.3260  126.2170 C   0  0  0  0  0  0  0  0  0  0  0  0
   19.5720   33.6270  124.9930 C   0  0  0  0  0  0  0  0  0  0  0  0
   19.4900   32.3510  127.1080 N   0  0  0  0  0  0  0  0  0  0  0  0
   19.2650   32.7340  128.0300 H   0  0  0  0  0  0  0  0  0  0  0  0
   19.2490   30.9410  127.0200 C   0  0  0  0  0  3  0  0  0  0  0  0
   18.5410   30.3790  128.2790 C   0  0  0  0  0  2  0  0  0  0  0  0
   17.9580   30.5730  126.2400 C   0  0  0  0  0  2  0  0  0  0  0  0
   17.7020   29.5060  127.3220 C   0  0  0  0  0  2  0  0  0  0  0  0
   20.7970   33.0070  124.4240 C   0  0  0  0  0  0  0  0  0  0  0  0
   21.8370   33.8820  124.3150 F   0  0  0  0  0  0  0  0  0  0  0  0
   20.6230   32.4610  123.1940 F   0  0  0  0  0  0  0  0  0  0  0  0
   21.2870   31.9840  125.1880 F   0  0  0  0  0  0  0  0  0  0  0  0
  2  3  1  6  0  0  0
  2  1  1  0  0  0  0
  2 11  1  0  0  0  0
  4  3  1  0  0  0  0
  5  4  1  6  0  0  0
  5  1  1  0  0  0  0
  5  6  1  0  0  0  0
  6 11  2  0  0  0  0
  6  7  1  0  0  0  0
  7  8  2  0  0  0  0
  8  9  1  0  0  0  0
  9 20  1  0  0  0  0
 10  9  2  0  0  0  0
 11 10  1  0  0  0  0
 12  1  1  0  0  0  0
 12 13  2  0  0  0  0
 14 12  1  0  0  0  0
 14 15  1  0  0  0  0
 15 16  1  0  0  0  0
 16 18  1  0  0  0  0
 17 16  2  0  0  0  0
 19 15  1  0  0  0  0
 20 21  1  0  0  0  0
 22 20  1  0  0  0  0
 22 24  1  0  0  0  0
 23 22  2  0  0  0  0
 25 23  1  0  0  0  0
 25 27  2  0  0  0  0
 26 24  2  0  0  0  0
 26 28  1  0  0  0  0
 27 26  1  0  0  0  0
 28 29  1  0  0  0  0
 30 28  1  0  0  0  0
 30 31  1  0  0  0  0
 32 30  1  0  0  0  0
 32 33  1  0  0  0  0
 33 31  1  0  0  0  0
 34 27  1  0  0  0  0
 34 37  1  0  0  0  0
 35 34  1  0  0  0  0
 36 34  1  0  0  0  0
M  END
>  <minimizedAffinity>
-9.57461929

>  <CNNscore>
0.336131603

>  <CNNaffinity>
6.68821716

$$$$
