
 OpenBabel08012607063D

 22 24  0  0  0  0  0  0  0  0999 V2000
   16.3160   36.7670  124.6970 N   0  0  0  0  0  0  0  0  0  0  0  0
   15.1460   37.4320  125.0230 C   0  0  0  0  0  3  0  0  0  0  0  0
   14.3800   37.1960  126.1010 C   0  0  0  0  0  0  0  0  0  0  0  0
   14.8540   36.1490  127.0400 C   0  0  0  0  0  0  0  0  0  0  0  0
   14.2930   35.8840  128.0970 O   0  0  0  0  0  0  0  0  0  0  0  0
   16.0880   35.4300  126.6850 C   0  0  0  0  0  0  0  0  0  0  0  0
   16.5960   34.4320  127.4760 C   0  0  0  0  0  3  0  0  0  0  0  0
   17.7310   33.7690  127.1830 N   0  0  0  0  0  0  0  0  0  0  0  0
   18.3830   34.1210  126.0630 C   0  0  0  0  0  0  0  0  0  0  0  0
   17.9450   35.0900  125.2400 N   0  0  0  0  0  0  0  0  0  0  0  0
   16.8030   35.7430  125.5450 C   0  0  0  0  0  0  0  0  0  0  0  0
   17.1290   37.0910  123.5190 C   0  0  0  0  0  2  0  0  0  0  0  0
   17.0070   38.5660  123.1630 C   0  0  0  0  0  1  0  0  0  0  0  0
   13.1550   37.9910  126.2560 C   0  0  0  0  0  0  0  0  0  0  0  0
   12.4580   38.0320  127.2580 O   0  0  0  0  0  0  0  0  0  0  0  0
   12.8670   38.7500  125.1910 O   0  0  0  0  0  0  0  0  0  0  0  0
   12.0360   39.2120  125.4220 H   0  0  0  0  0  0  0  0  0  0  0  0
   19.5290   33.4520  125.7340 N   0  0  0  0  0  0  0  0  0  0  0  0
   20.0330   33.4750  124.3730 C   0  0  0  0  0  2  0  0  0  0  0  0
   19.9380   32.2620  126.4600 C   0  0  0  0  0  2  0  0  0  0  0  0
   21.2080   32.5020  124.4350 C   0  0  0  0  0  2  0  0  0  0  0  0
   20.7200   31.4510  125.4230 C   0  0  0  0  0  2  0  0  0  0  0  0
  1  2  1  0  0  0  0
  1 11  1  0  0  0  0
  2  3  2  0  0  0  0
  3 14  1  0  0  0  0
  3  4  1  0  0  0  0
  4  5  2  0  0  0  0
  6  4  1  0  0  0  0
  6  7  2  0  0  0  0
  8  7  1  0  0  0  0
  9  8  2  0  0  0  0
 10 11  2  0  0  0  0
 10  9  1  0  0  0  0
 11  6  1  0  0  0  0
 12  1  1  0  0  0  0
 13 12  1  0  0  0  0
 14 15  2  0  0  0  0
 16 17  1  0  0  0  0
 16 14  1  0  0  0  0
 18  9  1  0  0  0  0
 18 20  1  0  0  0  0
 19 21  1  0  0  0  0
 19 18  1  0  0  0  0
 21 22  1  0  0  0  0
 22 20  1  0  0  0  0
M  END
>  <minimizedAffinity>
-7.2833786

>  <CNNscore>
0.698622584

>  <CNNaffinity>
5.32083654

$$$$
