
 OpenBabel08012606283D

 34 37  0  0  1  0  0  0  0  0999 V2000
   20.0440   36.1950  124.6110 C   0  0  0  0  0  1  0  0  0  0  0  0
   19.0590   35.0510  124.2990 C   0  0  1  0  0  3  0  0  0  0  0  0
   19.5750   33.7590  124.9180 C   0  0  0  0  0  0  0  0  0  0  0  0
   20.7270   33.1780  124.3630 C   0  0  0  0  0  3  0  0  0  0  0  0
   21.2870   32.0380  124.9180 C   0  0  0  0  0  3  0  0  0  0  0  0
   20.6950   31.4500  126.0310 C   0  0  0  0  0  3  0  0  0  0  0  0
   19.5170   31.9660  126.6090 C   0  0  0  0  0  0  0  0  0  0  0  0
   18.9650   33.1580  126.0420 C   0  0  0  0  0  0  0  0  0  0  0  0
   17.6680   33.7590  126.5410 C   0  0  0  0  0  2  0  0  0  0  0  0
   17.3830   35.2200  126.1310 C   0  0  1  0  0  3  0  0  0  0  0  0
   17.6870   35.4100  124.6980 N   0  0  0  0  0  0  0  0  0  0  0  0
   17.1190   36.5090  124.0300 C   0  0  0  0  0  0  0  0  0  0  0  0
   15.9480   36.5350  123.6560 O   0  0  0  0  0  0  0  0  0  0  0  0
   18.0520   37.7010  123.8280 C   0  0  0  0  0  2  0  0  0  0  0  0
   17.3510   39.0310  124.0240 C   0  0  0  0  0  0  0  0  0  0  0  0
   16.2840   39.4100  123.1730 C   0  0  0  0  0  0  0  0  0  0  0  0
   17.6810   39.9300  125.0810 C   0  0  0  0  0  0  0  0  0  0  0  0
   15.6020   40.6180  123.3330 C   0  0  0  0  0  3  0  0  0  0  0  0
   16.9770   41.1320  125.2100 C   0  0  0  0  0  0  0  0  0  0  0  0
   18.6030   39.9710  126.1660 C   0  0  0  0  0  0  0  0  0  0  0  0
   15.9390   41.5060  124.3520 C   0  0  0  0  0  3  0  0  0  0  0  0
   17.5210   41.7650  126.3020 N   0  0  0  0  0  0  0  0  0  0  0  0
   18.5220   41.0930  126.8850 N   0  0  0  0  0  0  0  0  0  0  0  0
   15.7610   38.4000  121.8640 Cl  0  0  0  0  0  0  0  0  0  0  0  0
   19.7510   38.8020  126.6080 Cl  0  0  0  0  0  0  0  0  0  0  0  0
   17.1140   43.0420  126.8430 C   0  0  0  0  0  1  0  0  0  0  0  0
   15.9200   35.5450  126.5570 C   0  0  0  0  0  2  0  0  0  0  0  0
   14.9380   34.9100  125.7400 O   0  0  0  0  0  0  0  0  0  0  0  0
   15.0100   33.9500  125.8560 H   0  0  0  0  0  0  0  0  0  0  0  0
   18.9100   31.2490  127.8300 C   0  0  0  0  0  0  0  0  0  0  0  0
   20.0070   30.8810  128.8350 C   0  0  0  0  0  1  0  0  0  0  0  0
   18.1100   29.9730  127.5020 C   0  0  0  0  0  1  0  0  0  0  0  0
   17.9610   32.1020  128.4800 O   0  0  0  0  0  0  0  0  0  0  0  0
   17.3540   32.4130  127.7850 H   0  0  0  0  0  0  0  0  0  0  0  0
  2  1  1  1  0  0  0
  2 11  1  0  0  0  0
  2  3  1  0  0  0  0
  3  8  1  0  0  0  0
  4  5  1  0  0  0  0
  4  3  2  0  0  0  0
  5  6  2  0  0  0  0
  6  7  1  0  0  0  0
  7 30  1  0  0  0  0
  8  9  1  0  0  0  0
  8  7  2  0  0  0  0
 10  9  1  0  0  0  0
 10 27  1  6  0  0  0
 11 10  1  0  0  0  0
 12 11  1  0  0  0  0
 13 12  2  0  0  0  0
 14 15  1  0  0  0  0
 14 12  1  0  0  0  0
 15 17  1  0  0  0  0
 16 18  1  0  0  0  0
 16 15  2  0  0  0  0
 17 19  2  0  0  0  0
 17 20  1  0  0  0  0
 18 21  2  0  0  0  0
 19 22  1  0  0  0  0
 20 25  1  0  0  0  0
 20 23  2  0  0  0  0
 21 19  1  0  0  0  0
 22 26  1  0  0  0  0
 22 23  1  0  0  0  0
 24 16  1  0  0  0  0
 28 29  1  0  0  0  0
 28 27  1  0  0  0  0
 30 33  1  0  0  0  0
 30 31  1  0  0  0  0
 32 30  1  0  0  0  0
 34 33  1  0  0  0  0
M  END
>  <minimizedAffinity>
-10.6247463

>  <CNNscore>
0.762657166

>  <CNNaffinity>
7.25986242

$$$$
