
 OpenBabel08012617593D

 31 32  0  0  0  0  0  0  0  0999 V2000
   15.6390   38.9000  124.8320 C   0  0  0  0  0  2  0  0  0  0  0  0
   14.3760   38.3010  125.4700 C   0  0  0  0  0  2  0  0  0  0  0  0
   14.7320   37.6140  126.7350 N   0  0  0  0  0  0  0  0  0  0  0  0
   15.7070   37.3080  126.7530 H   0  0  0  0  0  0  0  0  0  0  0  0
   13.7920   36.2970  127.1580 S   0  0  0  0  0  0  0  0  0  0  0  0
   12.4890   36.8130  127.4790 O   0  0  0  0  0  0  0  0  0  0  0  0
   14.5620   35.4630  128.0400 O   0  0  0  0  0  0  0  0  0  0  0  0
   13.7140   35.5800  125.6750 N   0  0  0  0  0  0  0  0  0  0  0  0
   13.1990   36.1330  124.9970 H   0  0  0  0  0  0  0  0  0  0  0  0
   14.5840   35.1620  125.3610 H   0  0  0  0  0  0  0  0  0  0  0  0
   16.3320   37.9390  123.9680 N   0  0  0  0  0  0  0  0  0  0  0  0
   15.8220   37.0590  123.8980 H   0  0  0  0  0  0  0  0  0  0  0  0
   17.6950   37.8430  124.0280 C   0  0  0  0  0  0  0  0  0  0  0  0
   18.5640   38.6720  123.4490 N   0  0  0  0  0  0  0  0  0  0  0  0
   18.4170   36.8280  124.7220 C   0  0  0  0  0  0  0  0  0  0  0  0
   19.8180   38.2150  123.8180 O   0  0  0  0  0  0  0  0  0  0  0  0
   19.7280   37.0810  124.6040 N   0  0  0  0  0  0  0  0  0  0  0  0
   17.9230   35.6560  125.4530 C   0  0  0  0  0  0  0  0  0  0  0  0
   16.7220   35.2510  125.1640 N   0  0  0  0  0  0  0  0  0  0  0  0
   18.8300   35.1800  126.3840 N   0  0  0  0  0  0  0  0  0  0  0  0
   19.5300   35.8470  126.6990 H   0  0  0  0  0  0  0  0  0  0  0  0
   16.2970   34.2200  126.0110 O   0  0  0  0  0  0  0  0  0  0  0  0
   15.3710   34.0900  125.7350 H   0  0  0  0  0  0  0  0  0  0  0  0
   19.2910   33.8490  126.5000 C   0  0  0  0  0  0  0  0  0  0  0  0
   19.8450   33.2370  125.3630 C   0  0  0  0  0  3  0  0  0  0  0  0
   19.2780   33.1290  127.7030 C   0  0  0  0  0  3  0  0  0  0  0  0
   20.3450   31.9340  125.4170 C   0  0  0  0  0  3  0  0  0  0  0  0
   19.7790   31.8250  127.7580 C   0  0  0  0  0  0  0  0  0  0  0  0
   20.3070   31.2320  126.6160 C   0  0  0  0  0  0  0  0  0  0  0  0
   19.7270   30.8780  129.3950 Br  0  0  0  0  0  0  0  0  0  0  0  0
   20.7870   29.9820  126.6470 F   0  0  0  0  0  0  0  0  0  0  0  0
  1  2  1  0  0  0  0
  2  3  1  0  0  0  0
  3  4  1  0  0  0  0
  3  5  1  0  0  0  0
  5  6  2  0  0  0  0
  5  7  2  0  0  0  0
  8  5  1  0  0  0  0
  9  8  1  0  0  0  0
 10  8  1  0  0  0  0
 11 13  1  0  0  0  0
 11  1  1  0  0  0  0
 12 11  1  0  0  0  0
 13 15  1  0  0  0  0
 14 16  1  0  0  0  0
 14 13  2  0  0  0  0
 15 18  1  0  0  0  0
 16 17  1  0  0  0  0
 17 15  2  0  0  0  0
 18 20  1  0  0  0  0
 19 18  2  0  0  0  0
 19 22  1  0  0  0  0
 20 24  1  0  0  0  0
 20 21  1  0  0  0  0
 23 22  1  0  0  0  0
 24 26  1  0  0  0  0
 25 27  1  0  0  0  0
 25 24  2  0  0  0  0
 26 28  2  0  0  0  0
 27 29  2  0  0  0  0
 28 30  1  0  0  0  0
 29 31  1  0  0  0  0
 29 28  1  0  0  0  0
M  END
>  <minimizedAffinity>
-7.93797827

>  <CNNscore>
0.748442829

>  <CNNaffinity>
6.66497087

$$$$
