
 OpenBabel08012610003D

 35 38  0  0  0  0  0  0  0  0999 V2000
   17.6870   40.2850  125.0620 N   0  0  0  0  0  0  0  0  0  0  0  0
   16.7860   39.7000  124.2370 C   0  0  0  0  0  0  0  0  0  0  0  0
   17.0260   38.4520  123.9630 N   0  0  0  0  0  0  0  0  0  0  0  0
   18.1960   38.1750  124.6450 N   0  0  0  0  0  0  0  0  0  0  0  0
   18.6210   39.3150  125.3530 C   0  0  0  0  0  0  0  0  0  0  0  0
   19.5810   39.4680  126.0960 O   0  0  0  0  0  0  0  0  0  0  0  0
   17.7370   41.6140  125.6370 C   0  0  0  0  0  2  0  0  0  0  0  0
   18.2780   41.5520  127.0660 C   0  0  0  0  0  0  0  0  0  0  0  0
   19.6230   41.8490  127.1660 N   0  0  0  0  0  0  0  0  0  0  0  0
   17.5950   41.2180  128.0300 O   0  0  0  0  0  0  0  0  0  0  0  0
   20.1600   42.0340  126.3270 H   0  0  0  0  0  0  0  0  0  0  0  0
   20.3310   41.7910  128.4380 C   0  0  0  0  0  3  0  0  0  0  0  0
   19.9990   40.4990  129.1810 C   0  0  0  0  0  1  0  0  0  0  0  0
   21.8350   41.9120  128.2110 C   0  0  0  0  0  1  0  0  0  0  0  0
   15.6100   40.4150  123.7430 C   0  0  0  0  0  0  0  0  0  0  0  0
   15.7300   41.3710  122.7300 C   0  0  0  0  0  3  0  0  0  0  0  0
   14.3620   40.1000  124.2880 C   0  0  0  0  0  3  0  0  0  0  0  0
   14.5910   42.0410  122.2790 C   0  0  0  0  0  3  0  0  0  0  0  0
   13.2340   40.7800  123.8340 C   0  0  0  0  0  0  0  0  0  0  0  0
   13.3430   41.7500  122.8370 C   0  0  0  0  0  3  0  0  0  0  0  0
   11.6930   40.4270  124.5170 Cl  0  0  0  0  0  0  0  0  0  0  0  0
   18.7730   36.8910  124.5760 C   0  0  0  0  0  0  0  0  0  0  0  0
   17.9590   35.7640  124.3900 C   0  0  0  0  0  3  0  0  0  0  0  0
   20.1550   36.6960  124.6790 C   0  0  0  0  0  3  0  0  0  0  0  0
   18.5080   34.4810  124.3010 C   0  0  0  0  0  3  0  0  0  0  0  0
   20.7070   35.4130  124.5980 C   0  0  0  0  0  3  0  0  0  0  0  0
   19.8890   34.2940  124.4060 C   0  0  0  0  0  0  0  0  0  0  0  0
   20.4920   32.9170  124.2700 C   0  0  0  0  0  2  0  0  0  0  0  0
   19.6290   31.8590  124.9810 C   0  0  0  0  0  2  0  0  0  0  0  0
   19.5780   32.0380  126.4440 N   0  0  0  0  0  0  0  0  0  0  0  0
   18.2220   31.7710  126.9830 C   0  0  0  0  0  2  0  0  0  0  0  0
   20.5790   31.1850  127.1270 C   0  0  0  0  0  2  0  0  0  0  0  0
   18.2550   31.3060  128.4460 C   0  0  0  0  0  2  0  0  0  0  0  0
   19.9950   29.8670  127.6550 C   0  0  0  0  0  2  0  0  0  0  0  0
   18.9510   30.0630  128.6190 O   0  0  0  0  0  0  0  0  0  0  0  0
  1  5  1  0  0  0  0
  1  7  1  0  0  0  0
  2  1  1  0  0  0  0
  3  2  2  0  0  0  0
  3  4  1  0  0  0  0
  4  5  1  0  0  0  0
  5  6  2  0  0  0  0
  7  8  1  0  0  0  0
  8  9  1  0  0  0  0
  8 10  2  0  0  0  0
  9 12  1  0  0  0  0
 11  9  1  0  0  0  0
 12 13  1  0  0  0  0
 14 12  1  0  0  0  0
 15  2  1  0  0  0  0
 15 17  1  0  0  0  0
 16 15  2  0  0  0  0
 18 16  1  0  0  0  0
 18 20  2  0  0  0  0
 19 17  2  0  0  0  0
 19 21  1  0  0  0  0
 20 19  1  0  0  0  0
 22  4  1  0  0  0  0
 22 24  1  0  0  0  0
 23 22  2  0  0  0  0
 25 23  1  0  0  0  0
 25 27  2  0  0  0  0
 26 24  2  0  0  0  0
 27 26  1  0  0  0  0
 28 27  1  0  0  0  0
 28 29  1  0  0  0  0
 29 30  1  0  0  0  0
 30 31  1  0  0  0  0
 30 32  1  0  0  0  0
 31 33  1  0  0  0  0
 32 34  1  0  0  0  0
 33 35  1  0  0  0  0
 34 35  1  0  0  0  0
M  END
>  <minimizedAffinity>
-8.4553709

>  <CNNscore>
0.311846197

>  <CNNaffinity>
6.27261496

$$$$
