
 OpenBabel08012615273D

 33 37  0  0  1  0  0  0  0  0999 V2000
   16.5240   36.4630  125.7510 C   0  0  0  0  0  0  0  0  0  0  0  0
   17.3580   37.3320  125.0110 C   0  0  0  0  0  3  0  0  0  0  0  0
   18.6290   36.9380  124.5780 C   0  0  0  0  0  3  0  0  0  0  0  0
   19.0580   35.6590  124.8800 C   0  0  0  0  0  0  0  0  0  0  0  0
   18.2540   34.7830  125.6130 C   0  0  0  0  0  0  0  0  0  0  0  0
   16.9940   35.1720  126.0520 C   0  0  0  0  0  3  0  0  0  0  0  0
   18.9690   33.4720  125.8480 C   0  0  2  0  0  0  0  0  0  0  0  0
   18.0800   32.2910  125.7500 N   0  0  0  0  0  0  0  0  0  0  0  0
   18.2090   31.7340  126.9070 C   0  0  0  0  0  0  0  0  0  0  0  0
   17.5270   30.4960  127.3600 C   0  0  0  0  0  1  0  0  0  0  0  0
   19.1530   32.4740  127.7920 C   0  0  0  0  0  0  0  0  0  0  0  0
   19.4680   32.1180  129.0670 N   0  0  0  0  0  0  0  0  0  0  0  0
   19.6360   33.5000  127.1800 N   0  0  0  0  0  0  0  0  0  0  0  0
   20.0400   33.4950  124.6860 C   0  0  1  0  0  0  0  0  0  0  0  0
   21.3140   32.6850  125.0370 C   0  0  0  0  0  2  0  0  0  0  0  0
   22.1020   32.3070  123.7890 C   0  0  0  0  0  2  0  0  0  0  0  0
   21.3150   31.3390  122.8950 C   0  0  1  0  0  3  0  0  0  0  0  0
   19.7960   31.5440  123.0110 C   0  0  0  0  0  2  0  0  0  0  0  0
   19.4450   33.0010  123.3180 C   0  0  0  0  0  2  0  0  0  0  0  0
   20.3730   35.0200  124.5520 C   0  0  0  0  0  2  0  0  0  0  0  0
   18.7350   31.6870  129.6180 H   0  0  0  0  0  0  0  0  0  0  0  0
   19.9430   32.8670  129.5640 H   0  0  0  0  0  0  0  0  0  0  0  0
   15.1950   36.9010  126.2020 C   0  0  0  0  0  0  0  0  0  0  0  0
   12.4740   39.3020  125.3020 C   0  0  0  0  0  0  0  0  0  0  0  0
   13.2170   38.2880  125.9810 C   0  0  0  0  0  0  0  0  0  0  0  0
   12.7040   37.6590  127.1070 C   0  0  0  0  0  3  0  0  0  0  0  0
   14.4770   37.9000  125.5270 C   0  0  0  0  0  3  0  0  0  0  0  0
   13.3550   36.6910  127.7930 N   0  0  0  0  0  0  0  0  0  0  0  0
   14.5790   36.3420  127.3240 C   0  0  0  0  0  3  0  0  0  0  0  0
   11.8510   40.1540  124.7290 C   0  0  0  0  0  0  0  0  0  0  0  0
   11.0930   41.1930  124.0330 C   0  0  0  0  0  1  0  0  0  0  0  0
   21.7640   31.5590  121.5520 O   0  0  0  0  0  0  0  0  0  0  0  0
   20.7510   31.3400  120.5790 C   0  0  0  0  0  1  0  0  0  0  0  0
  1  6  1  0  0  0  0
  1 23  1  0  0  0  0
  2  1  2  0  0  0  0
  3  4  2  0  0  0  0
  3  2  1  0  0  0  0
  4  5  1  0  0  0  0
  5  6  2  0  0  0  0
  7  5  1  6  0  0  0
  7 13  1  0  0  0  0
  8  7  1  0  0  0  0
  8  9  2  0  0  0  0
  9 10  1  0  0  0  0
  9 11  1  0  0  0  0
 11 12  1  0  0  0  0
 12 22  1  0  0  0  0
 12 21  1  0  0  0  0
 13 11  2  0  0  0  0
 14 19  1  6  0  0  0
 14 15  1  0  0  0  0
 14  7  1  0  0  0  0
 16 15  1  0  0  0  0
 17 32  1  6  0  0  0
 17 18  1  0  0  0  0
 17 16  1  0  0  0  0
 18 19  1  0  0  0  0
 20 14  1  0  0  0  0
 20  4  1  0  0  0  0
 23 29  1  0  0  0  0
 24 25  1  0  0  0  0
 25 26  2  0  0  0  0
 26 28  1  0  0  0  0
 27 25  1  0  0  0  0
 27 23  2  0  0  0  0
 29 28  2  0  0  0  0
 30 24  3  0  0  0  0
 31 30  1  0  0  0  0
 33 32  1  0  0  0  0
M  END
>  <minimizedAffinity>
-4.18167353

>  <CNNscore>
0.442748845

>  <CNNaffinity>
6.85667849

$$$$
