
 OpenBabel08012617243D

 36 37  0  0  0  0  0  0  0  0999 V2000
   13.8780   38.5930  124.8220 C   0  0  0  0  0  2  0  0  0  0  0  0
   14.0120   40.0380  124.3790 C   0  0  0  0  0  0  0  0  0  0  0  0
   12.7590   41.9440  123.2200 C   0  0  0  0  0  0  0  0  0  0  0  0
   13.8160   42.7590  123.3780 C   0  0  0  0  0  0  0  0  0  0  0  0
   12.8010   40.5310  123.6490 C   0  0  0  0  0  0  0  0  0  0  0  0
   15.1230   42.3180  124.0380 C   0  0  0  0  0  0  0  0  0  0  0  0
   11.8660   39.7740  123.4020 O   0  0  0  0  0  0  0  0  0  0  0  0
   15.0460   40.8790  124.5720 C   0  0  0  0  0  0  0  0  0  0  0  0
   15.4390   43.2520  125.2290 C   0  0  0  0  0  1  0  0  0  0  0  0
   16.2490   42.4020  122.9880 C   0  0  0  0  0  1  0  0  0  0  0  0
   11.4970   42.5020  122.6590 C   0  0  0  0  0  0  0  0  0  0  0  0
   11.3180   42.4690  121.4390 O   0  0  0  0  0  0  0  0  0  0  0  0
   10.4130   42.9980  123.6090 C   0  0  0  0  0  2  0  0  0  0  0  0
    9.3990   41.9380  124.0270 C   0  0  0  0  0  2  0  0  0  0  0  0
    8.0270   42.1750  123.4020 C   0  0  0  0  0  1  0  0  0  0  0  0
   13.7390   44.0710  122.9160 O   0  0  0  0  0  0  0  0  0  0  0  0
   14.5210   44.5850  123.1800 H   0  0  0  0  0  0  0  0  0  0  0  0
   16.1100   40.4720  125.3670 O   0  0  0  0  0  0  0  0  0  0  0  0
   16.9460   40.7720  124.9670 H   0  0  0  0  0  0  0  0  0  0  0  0
   15.0860   37.6770  124.6840 C   0  0  0  0  0  0  0  0  0  0  0  0
   15.8000   37.6050  123.4720 C   0  0  0  0  0  0  0  0  0  0  0  0
   15.5030   36.8790  125.7730 C   0  0  0  0  0  0  0  0  0  0  0  0
   16.8600   36.7020  123.3500 C   0  0  0  0  0  3  0  0  0  0  0  0
   16.5310   35.9400  125.6480 C   0  0  0  0  0  0  0  0  0  0  0  0
   17.2160   35.8830  124.4240 C   0  0  0  0  0  0  0  0  0  0  0  0
   15.4050   38.4760  122.4920 O   0  0  0  0  0  0  0  0  0  0  0  0
   14.7530   37.9250  121.3510 C   0  0  0  0  0  1  0  0  0  0  0  0
   14.9330   37.1130  126.9980 O   0  0  0  0  0  0  0  0  0  0  0  0
   15.0320   38.0790  127.1430 H   0  0  0  0  0  0  0  0  0  0  0  0
   16.9430   35.0130  126.7420 C   0  0  0  0  0  0  0  0  0  0  0  0
   16.1340   34.8070  127.6530 O   0  0  0  0  0  0  0  0  0  0  0  0
   18.3270   34.3990  126.7820 C   0  0  0  0  0  2  0  0  0  0  0  0
   18.2810   32.9140  127.1390 C   0  0  0  0  0  2  0  0  0  0  0  0
   19.5730   32.4590  127.8070 C   0  0  0  0  0  1  0  0  0  0  0  0
   18.2810   35.0420  124.1990 O   0  0  0  0  0  0  0  0  0  0  0  0
   18.5400   34.6510  125.0670 H   0  0  0  0  0  0  0  0  0  0  0  0
  2  8  2  0  0  0  0
  2  1  1  0  0  0  0
  3  4  2  0  0  0  0
  3  5  1  0  0  0  0
  4  6  1  0  0  0  0
  5  2  1  0  0  0  0
  6  8  1  0  0  0  0
  6  9  1  0  0  0  0
  7  5  2  0  0  0  0
  8 18  1  0  0  0  0
 10  6  1  0  0  0  0
 11  3  1  0  0  0  0
 11 13  1  0  0  0  0
 12 11  2  0  0  0  0
 13 14  1  0  0  0  0
 15 14  1  0  0  0  0
 16 17  1  0  0  0  0
 16  4  1  0  0  0  0
 19 18  1  0  0  0  0
 20  1  1  0  0  0  0
 20 22  1  0  0  0  0
 21 20  2  0  0  0  0
 22 28  1  0  0  0  0
 23 21  1  0  0  0  0
 23 25  2  0  0  0  0
 24 22  2  0  0  0  0
 24 30  1  0  0  0  0
 25 24  1  0  0  0  0
 26 21  1  0  0  0  0
 27 26  1  0  0  0  0
 28 29  1  0  0  0  0
 30 32  1  0  0  0  0
 30 31  2  0  0  0  0
 32 33  1  0  0  0  0
 33 34  1  0  0  0  0
 35 25  1  0  0  0  0
 35 36  1  0  0  0  0
M  END
>  <minimizedAffinity>
-7.75608349

>  <CNNscore>
0.460920006

>  <CNNaffinity>
5.56453133

$$$$
