
 OpenBabel08012609443D

 39 41  0  0  1  0  0  0  0  0999 V2000
   15.8710   35.5430  126.6390 C   0  0  0  0  0  0  0  0  0  0  0  0
   16.2080   35.2250  127.7780 O   0  0  0  0  0  0  0  0  0  0  0  0
   16.3980   35.0440  125.4530 O   0  0  0  0  0  0  0  0  0  0  0  0
   17.6900   35.5300  125.2040 C   0  0  0  0  0  0  0  0  0  0  0  0
   19.0290   37.4640  124.6310 C   0  0  0  0  0  0  0  0  0  0  0  0
   17.7920   36.9050  124.9550 C   0  0  0  0  0  3  0  0  0  0  0  0
   20.1380   36.6180  124.5240 C   0  0  0  0  0  3  0  0  0  0  0  0
   20.0250   35.2460  124.7810 C   0  0  0  0  0  0  0  0  0  0  0  0
   18.8150   34.6870  125.2100 C   0  0  0  0  0  0  0  0  0  0  0  0
   21.1710   34.5310  124.5530 O   0  0  0  0  0  0  0  0  0  0  0  0
   18.7500   33.2150  125.5460 C   0  0  2  0  0  3  0  0  0  0  0  0
   21.0390   33.0960  124.4590 C   0  0  0  0  0  0  0  0  0  0  0  0
   18.0290   32.8620  126.8330 C   0  0  0  0  0  3  0  0  0  0  0  0
   20.1660   32.5960  125.6240 C   0  0  2  0  0  3  0  0  0  0  0  0
   18.2590   31.7230  127.5140 C   0  0  0  0  0  0  0  0  0  0  0  0
   20.0150   31.0730  125.7610 C   0  0  0  0  0  2  0  0  0  0  0  0
   19.2920   30.7140  127.0680 C   0  0  0  0  0  2  0  0  0  0  0  0
   22.4780   32.5690  124.5980 C   0  0  0  0  0  1  0  0  0  0  0  0
   20.5300   32.7180  123.0590 C   0  0  0  0  0  1  0  0  0  0  0  0
   17.5330   31.3970  128.7880 C   0  0  0  0  0  1  0  0  0  0  0  0
   19.1580   38.9370  124.3340 C   0  0  0  0  0  2  0  0  0  0  0  0
   18.1300   39.7650  125.1100 C   0  0  0  0  0  2  0  0  0  0  0  0
   18.8100   40.6810  126.1290 C   0  0  0  0  0  2  0  0  0  0  0  0
   20.0160   39.9970  126.7720 C   0  0  0  0  0  2  0  0  0  0  0  0
   20.1420   40.3560  128.2440 C   0  0  0  0  0  1  0  0  0  0  0  0
   14.7870   36.5920  126.3400 C   0  0  1  0  0  3  0  0  0  0  0  0
   14.6730   36.6820  124.8740 N   0  0  0  0  0  0  0  0  0  0  0  0
   14.7260   37.9000  124.2280 C   0  0  0  0  0  0  0  0  0  0  0  0
   14.7170   38.9760  124.8140 O   0  0  0  0  0  0  0  0  0  0  0  0
   15.0370   35.8860  124.3590 H   0  0  0  0  0  0  0  0  0  0  0  0
   14.7990   37.7630  122.7220 C   0  0  0  0  0  2  0  0  0  0  0  0
   14.2170   38.9830  122.0150 C   0  0  0  0  0  2  0  0  0  0  0  0
   12.7170   38.9390  122.0330 C   0  0  0  0  0  0  0  0  0  0  0  0
   11.9510   39.8680  121.8430 O   0  0  0  0  0  0  0  0  0  0  0  0
   12.2450   37.7070  122.3110 O   0  0  0  0  0  0  0  0  0  0  0  0
   11.2710   37.8150  122.3140 H   0  0  0  0  0  0  0  0  0  0  0  0
   13.4020   36.2700  126.9440 C   0  0  0  0  0  3  0  0  0  0  0  0
   12.3700   35.9670  125.8580 C   0  0  0  0  0  1  0  0  0  0  0  0
   12.8790   37.3480  127.8960 C   0  0  0  0  0  1  0  0  0  0  0  0
  1  2  2  0  0  0  0
  3  1  1  0  0  0  0
  4  9  1  0  0  0  0
  4  3  1  0  0  0  0
  5  6  1  0  0  0  0
  6  4  2  0  0  0  0
  7  5  2  0  0  0  0
  7  8  1  0  0  0  0
  8  9  2  0  0  0  0
  9 11  1  0  0  0  0
 10  8  1  0  0  0  0
 11 14  1  0  0  0  0
 11 13  1  1  0  0  0
 12 10  1  0  0  0  0
 12 18  1  0  0  0  0
 12 14  1  0  0  0  0
 13 15  2  0  0  0  0
 14 16  1  6  0  0  0
 15 20  1  0  0  0  0
 16 17  1  0  0  0  0
 17 15  1  0  0  0  0
 19 12  1  0  0  0  0
 21  5  1  0  0  0  0
 21 22  1  0  0  0  0
 22 23  1  0  0  0  0
 23 24  1  0  0  0  0
 24 25  1  0  0  0  0
 26  1  1  6  0  0  0
 26 37  1  0  0  0  0
 27 26  1  0  0  0  0
 28 29  2  0  0  0  0
 28 27  1  0  0  0  0
 30 27  1  0  0  0  0
 31 28  1  0  0  0  0
 32 33  1  0  0  0  0
 32 31  1  0  0  0  0
 33 35  1  0  0  0  0
 34 33  2  0  0  0  0
 35 36  1  0  0  0  0
 37 39  1  0  0  0  0
 38 37  1  0  0  0  0
M  END
>  <minimizedAffinity>
-8.95479488

>  <CNNscore>
0.585791707

>  <CNNaffinity>
7.24586678

$$$$
