
 OpenBabel08012618383D

 36 39  0  0  1  0  0  0  0  0999 V2000
   17.1790   38.1890  124.2700 N   0  0  0  0  0  0  0  0  0  0  0  0
   16.3530   38.1190  125.3690 C   0  0  0  0  0  0  0  0  0  0  0  0
   16.2520   39.0370  126.1840 O   0  0  0  0  0  0  0  0  0  0  0  0
   17.0820   37.4820  123.5500 H   0  0  0  0  0  0  0  0  0  0  0  0
   17.8630   39.4350  123.9210 C   0  0  2  0  0  3  0  0  0  0  0  0
   19.5120   40.1020  125.8750 N   0  0  0  0  0  0  0  0  0  0  0  0
   18.8030   39.8030  125.0060 C   0  0  0  0  0  0  0  0  0  0  0  0
   16.8220   40.5410  123.6890 C   0  0  0  0  0  2  0  0  0  0  0  0
   17.1570   41.9060  124.3320 C   0  0  2  0  0  3  0  0  0  0  0  0
   16.4870   42.1370  125.6900 C   0  0  0  0  0  2  0  0  0  0  0  0
   16.8240   43.0270  123.3450 C   0  0  0  0  0  0  0  0  0  0  0  0
   16.7740   43.5470  126.1950 C   0  0  0  0  0  2  0  0  0  0  0  0
   16.7270   44.2940  123.8540 N   0  0  0  0  0  0  0  0  0  0  0  0
   16.7480   42.8530  122.1320 O   0  0  0  0  0  0  0  0  0  0  0  0
   16.2560   44.5610  125.1930 C   0  0  0  0  0  2  0  0  0  0  0  0
   16.4960   44.9740  123.1380 H   0  0  0  0  0  0  0  0  0  0  0  0
   15.5560   36.8110  125.5140 C   0  0  2  0  0  3  0  0  0  0  0  0
   14.5950   36.8630  126.7100 C   0  0  0  0  0  2  0  0  0  0  0  0
   13.1560   37.0700  126.3240 C   0  0  0  0  0  3  0  0  0  0  0  0
   12.6820   36.7690  124.9250 C   0  0  0  0  0  2  0  0  0  0  0  0
   12.2710   35.8770  126.0640 C   0  0  0  0  0  2  0  0  0  0  0  0
   16.5480   35.7530  125.6900 N   0  0  0  0  0  0  0  0  0  0  0  0
   16.5910   34.9820  126.8250 C   0  0  0  0  0  0  0  0  0  0  0  0
   15.8010   35.1630  127.7490 O   0  0  0  0  0  0  0  0  0  0  0  0
   17.1490   35.5780  124.8970 H   0  0  0  0  0  0  0  0  0  0  0  0
   17.6090   33.9520  126.8520 C   0  0  0  0  0  0  0  0  0  0  0  0
   18.5380   33.6760  125.8590 C   0  0  0  0  0  3  0  0  0  0  0  0
   17.8460   33.0420  127.8570 N   0  0  0  0  0  0  0  0  0  0  0  0
   19.3510   32.5900  126.2790 C   0  0  0  0  0  0  0  0  0  0  0  0
   18.8960   32.2100  127.5380 C   0  0  0  0  0  0  0  0  0  0  0  0
   20.4320   31.8920  125.7060 C   0  0  0  0  0  3  0  0  0  0  0  0
   19.4770   31.1570  128.2550 C   0  0  0  0  0  0  0  0  0  0  0  0
   21.0220   30.8370  126.4140 C   0  0  0  0  0  3  0  0  0  0  0  0
   20.5480   30.4740  127.6750 C   0  0  0  0  0  3  0  0  0  0  0  0
   17.3280   32.9670  128.7210 H   0  0  0  0  0  0  0  0  0  0  0  0
   18.8930   30.7100  129.8080 Cl  0  0  0  0  0  0  0  0  0  0  0  0
  1  2  1  0  0  0  0
  2 17  1  0  0  0  0
  2  3  2  0  0  0  0
  4  1  1  0  0  0  0
  5  8  1  1  0  0  0
  5  1  1  0  0  0  0
  5  7  1  0  0  0  0
  7  6  3  0  0  0  0
  9  8  1  6  0  0  0
  9 10  1  0  0  0  0
 10 12  1  0  0  0  0
 11 13  1  0  0  0  0
 11  9  1  0  0  0  0
 13 15  1  0  0  0  0
 14 11  2  0  0  0  0
 15 12  1  0  0  0  0
 16 13  1  0  0  0  0
 17 22  1  0  0  0  0
 17 18  1  1  0  0  0
 19 18  1  0  0  0  0
 20 21  1  0  0  0  0
 20 19  1  0  0  0  0
 21 19  1  0  0  0  0
 22 23  1  0  0  0  0
 23 26  1  0  0  0  0
 23 24  2  0  0  0  0
 25 22  1  0  0  0  0
 26 28  1  0  0  0  0
 27 29  1  0  0  0  0
 27 26  2  0  0  0  0
 28 35  1  0  0  0  0
 29 30  1  0  0  0  0
 30 28  1  0  0  0  0
 30 32  2  0  0  0  0
 31 29  2  0  0  0  0
 31 33  1  0  0  0  0
 32 36  1  0  0  0  0
 33 34  2  0  0  0  0
 34 32  1  0  0  0  0
M  END
>  <minimizedAffinity>
-8.62995625

>  <CNNscore>
0.570663333

>  <CNNaffinity>
7.04176712

$$$$
