
 OpenBabel08012618033D

 38 42  0  0  1  0  0  0  0  0999 V2000
   10.5240   42.7860  124.1590 C   0  0  0  0  0  2  0  0  0  0  0  0
   11.7360   42.7820  123.4080 O   0  0  0  0  0  0  0  0  0  0  0  0
   12.5880   41.7220  123.5740 C   0  0  0  0  0  0  0  0  0  0  0  0
   13.8560   42.0190  124.0990 C   0  0  0  0  0  0  0  0  0  0  0  0
   14.7790   40.9850  124.3240 C   0  0  0  0  0  3  0  0  0  0  0  0
   14.4760   39.6470  124.0190 C   0  0  0  0  0  0  0  0  0  0  0  0
   12.2700   40.4000  123.2700 C   0  0  0  0  0  3  0  0  0  0  0  0
   13.2040   39.3780  123.4860 C   0  0  0  0  0  3  0  0  0  0  0  0
   14.1000   43.3390  124.3900 O   0  0  0  0  0  0  0  0  0  0  0  0
   15.2410   43.6210  125.1910 C   0  0  0  0  0  1  0  0  0  0  0  0
   15.4240   38.5850  124.2540 N   0  0  0  0  0  0  0  0  0  0  0  0
   16.6260   38.5660  123.5480 C   0  0  0  0  0  3  0  0  0  0  0  0
   15.1590   37.5750  125.2030 C   0  0  0  0  0  0  0  0  0  0  0  0
   17.6010   37.7110  123.6380 N   0  0  0  0  0  0  0  0  0  0  0  0
   16.2210   36.6090  125.2890 C   0  0  0  0  0  0  0  0  0  0  0  0
   14.1610   37.5250  125.9190 O   0  0  0  0  0  0  0  0  0  0  0  0
   17.3660   36.6900  124.5560 C   0  0  0  0  0  0  0  0  0  0  0  0
   16.2170   35.2560  126.3100 S   0  0  0  0  0  0  0  0  0  0  0  0
   18.2740   35.6400  124.8140 C   0  0  0  0  0  3  0  0  0  0  0  0
   17.7830   34.7640  125.7710 C   0  0  0  0  0  0  0  0  0  0  0  0
   18.4050   33.5430  126.3010 C   0  0  0  0  0  0  0  0  0  0  0  0
   19.4790   32.9520  125.6170 C   0  0  0  0  0  3  0  0  0  0  0  0
   17.9660   32.9520  127.4970 C   0  0  0  0  0  3  0  0  0  0  0  0
   20.0930   31.7950  126.1090 C   0  0  0  0  0  3  0  0  0  0  0  0
   18.5800   31.7950  127.9900 C   0  0  0  0  0  3  0  0  0  0  0  0
   19.6400   31.2220  127.2940 C   0  0  0  0  0  0  0  0  0  0  0  0
   20.3940   29.8000  127.9010 Cl  0  0  0  0  0  0  0  0  0  0  0  0
    9.3490   43.1910  123.2560 C   0  0  2  0  0  3  0  0  0  0  0  0
    9.8650   44.0370  122.2290 O   0  0  0  0  0  0  0  0  0  0  0  0
    9.8080   43.5310  120.7160 P   0  0  0  0  0  0  0  0  0  0  0  0
    8.8650   42.4160  120.4260 O   0  0  0  0  0  0  0  0  0  0  0  0
   11.3170   43.1660  120.3490 O   0  0  0  0  0  0  0  0  0  0  0  0
   11.5120   42.2380  120.5750 H   0  0  0  0  0  0  0  0  0  0  0  0
    9.5370   44.8270  119.8290 O   0  0  0  0  0  0  0  0  0  0  0  0
    9.2960   44.5750  118.9190 H   0  0  0  0  0  0  0  0  0  0  0  0
    8.2320   43.9630  123.9270 C   0  0  0  0  0  3  0  0  0  0  0  0
    6.9670   43.2630  124.3620 C   0  0  0  0  0  2  0  0  0  0  0  0
    7.8740   43.8710  125.3940 C   0  0  0  0  0  2  0  0  0  0  0  0
  2  3  1  0  0  0  0
  2  1  1  0  0  0  0
  3  4  1  0  0  0  0
  4  5  2  0  0  0  0
  4  9  1  0  0  0  0
  6 11  1  0  0  0  0
  6  5  1  0  0  0  0
  7  8  1  0  0  0  0
  7  3  2  0  0  0  0
  8  6  2  0  0  0  0
  9 10  1  0  0  0  0
 11 13  1  0  0  0  0
 12 14  2  0  0  0  0
 12 11  1  0  0  0  0
 13 15  1  0  0  0  0
 13 16  2  0  0  0  0
 14 17  1  0  0  0  0
 15 18  1  0  0  0  0
 17 19  1  0  0  0  0
 17 15  2  0  0  0  0
 19 20  2  0  0  0  0
 20 21  1  0  0  0  0
 20 18  1  0  0  0  0
 21 23  1  0  0  0  0
 22 24  1  0  0  0  0
 22 21  2  0  0  0  0
 23 25  2  0  0  0  0
 24 26  2  0  0  0  0
 26 27  1  0  0  0  0
 26 25  1  0  0  0  0
 28 36  1  0  0  0  0
 28  1  1  1  0  0  0
 29 28  1  0  0  0  0
 30 29  1  0  0  0  0
 31 30  2  0  0  0  0
 32 33  1  0  0  0  0
 32 30  1  0  0  0  0
 34 30  1  0  0  0  0
 35 34  1  0  0  0  0
 36 37  1  0  0  0  0
 36 38  1  0  0  0  0
 37 38  1  0  0  0  0
M  END
>  <minimizedAffinity>
-8.10508156

>  <CNNscore>
0.405079782

>  <CNNaffinity>
6.17262316

$$$$
