
 OpenBabel08012604283D

 45 48  0  0  1  0  0  0  0  0999 V2000
   15.2170   39.3440  123.7190 C   0  0  1  0  0  0  0  0  0  0  0  0
   15.7870   39.4650  125.1530 C   0  0  0  0  0  2  0  0  0  0  0  0
   17.0570   38.6210  125.3190 C   0  0  0  0  0  2  0  0  0  0  0  0
   17.4830   38.0050  123.9670 C   0  0  2  0  0  0  0  0  0  0  0  0
   17.6180   39.1730  122.9540 C   0  0  0  0  0  2  0  0  0  0  0  0
   16.2830   39.8970  122.7520 C   0  0  0  0  0  2  0  0  0  0  0  0
   16.3400   37.0760  123.4450 C   0  0  2  0  0  3  0  0  0  0  0  0
   15.0010   37.8400  123.4310 C   0  0  0  0  0  2  0  0  0  0  0  0
   13.9740   40.1110  123.6410 N   0  0  0  0  0  0  0  0  0  0  0  0
   12.4700   38.3610  123.7400 O   0  0  0  0  0  0  0  0  0  0  0  0
   12.7090   39.5570  123.6020 C   0  0  0  0  0  0  0  0  0  0  0  0
   14.0310   41.0680  123.3030 H   0  0  0  0  0  0  0  0  0  0  0  0
   11.5970   40.5860  123.3860 C   0  0  0  0  0  2  0  0  0  0  0  0
   11.7000   41.7280  124.2290 O   0  0  0  0  0  0  0  0  0  0  0  0
   10.6240   42.5700  124.3060 C   0  0  0  0  0  0  0  0  0  0  0  0
   10.6610   43.9360  124.6090 C   0  0  0  0  0  3  0  0  0  0  0  0
    9.3930   41.9560  124.0620 C   0  0  0  0  0  3  0  0  0  0  0  0
    9.4740   44.6770  124.6720 C   0  0  0  0  0  3  0  0  0  0  0  0
    8.2160   42.6980  124.1210 C   0  0  0  0  0  0  0  0  0  0  0  0
    8.2500   44.0560  124.4270 C   0  0  0  0  0  0  0  0  0  0  0  0
    7.0510   42.0770  123.8810 F   0  0  0  0  0  0  0  0  0  0  0  0
    6.7990   44.9770  124.5110 Cl  0  0  0  0  0  0  0  0  0  0  0  0
   16.2150   35.9130  124.2700 O   0  0  0  0  0  0  0  0  0  0  0  0
   15.7250   36.2040  125.5730 C   0  0  0  0  0  2  0  0  0  0  0  0
   14.4880   35.5670  125.7920 O   0  0  0  0  0  0  0  0  0  0  0  0
   13.5010   36.3280  126.7860 P   0  0  0  0  0  0  0  0  0  0  0  0
   13.5430   37.8170  126.7770 O   0  0  0  0  0  0  0  0  0  0  0  0
   12.0620   35.7040  126.4990 O   0  0  0  0  0  0  0  0  0  0  0  0
   11.3780   36.1350  127.0440 H   0  0  0  0  0  0  0  0  0  0  0  0
   13.8470   35.6970  128.2090 O   0  0  0  0  0  0  0  0  0  0  0  0
   14.5800   36.1780  128.6400 H   0  0  0  0  0  0  0  0  0  0  0  0
   18.7760   37.3080  124.0100 N   0  0  0  0  0  0  0  0  0  0  0  0
   19.6640   37.3240  125.0690 C   0  0  0  0  0  0  0  0  0  0  0  0
   19.6680   38.1450  125.9800 O   0  0  0  0  0  0  0  0  0  0  0  0
   18.8170   36.4330  123.4920 H   0  0  0  0  0  0  0  0  0  0  0  0
   20.7510   36.2510  124.9680 C   0  0  0  0  0  2  0  0  0  0  0  0
   20.2800   35.1310  124.2170 O   0  0  0  0  0  0  0  0  0  0  0  0
   19.8510   34.0430  124.9240 C   0  0  0  0  0  0  0  0  0  0  0  0
   20.2920   32.7270  124.7540 C   0  0  0  0  0  3  0  0  0  0  0  0
   18.8800   34.3250  125.8880 C   0  0  0  0  0  3  0  0  0  0  0  0
   19.7610   31.7010  125.5450 C   0  0  0  0  0  3  0  0  0  0  0  0
   18.3540   33.3000  126.6720 C   0  0  0  0  0  0  0  0  0  0  0  0
   18.7890   31.9870  126.5050 C   0  0  0  0  0  0  0  0  0  0  0  0
   17.4230   33.6030  127.5880 F   0  0  0  0  0  0  0  0  0  0  0  0
   18.1440   30.7140  127.4660 Cl  0  0  0  0  0  0  0  0  0  0  0  0
  1  9  1  6  0  0  0
  1  2  1  0  0  0  0
  2  3  1  0  0  0  0
  4 32  1  1  0  0  0
  4  3  1  0  0  0  0
  5  4  1  0  0  0  0
  6  5  1  0  0  0  0
  6  1  1  0  0  0  0
  7  4  1  0  0  0  0
  7 23  1  1  0  0  0
  8  7  1  0  0  0  0
  8  1  1  0  0  0  0
 11  9  1  0  0  0  0
 11 10  2  0  0  0  0
 12  9  1  0  0  0  0
 13 11  1  0  0  0  0
 13 14  1  0  0  0  0
 14 15  1  0  0  0  0
 15 16  1  0  0  0  0
 16 18  2  0  0  0  0
 17 19  1  0  0  0  0
 17 15  2  0  0  0  0
 19 20  2  0  0  0  0
 20 22  1  0  0  0  0
 20 18  1  0  0  0  0
 21 19  1  0  0  0  0
 23 24  1  0  0  0  0
 24 25  1  0  0  0  0
 25 26  1  0  0  0  0
 26 30  1  0  0  0  0
 27 26  2  0  0  0  0
 28 26  1  0  0  0  0
 28 29  1  0  0  0  0
 30 31  1  0  0  0  0
 32 33  1  0  0  0  0
 33 34  2  0  0  0  0
 35 32  1  0  0  0  0
 36 33  1  0  0  0  0
 37 38  1  0  0  0  0
 37 36  1  0  0  0  0
 38 40  1  0  0  0  0
 39 38  2  0  0  0  0
 39 41  1  0  0  0  0
 40 42  2  0  0  0  0
 41 43  2  0  0  0  0
 42 44  1  0  0  0  0
 43 42  1  0  0  0  0
 43 45  1  0  0  0  0
M  END
>  <minimizedAffinity>
-9.72555923

>  <CNNscore>
0.873408139

>  <CNNaffinity>
6.99306536

$$$$
