
 OpenBabel08012609353D

 51 56  0  0  0  0  0  0  0  0999 V2000
   14.2340   37.5170  124.2660 C   0  0  0  0  0  2  0  0  0  0  0  0
   15.5880   37.0020  124.7420 C   0  0  0  0  0  0  0  0  0  0  0  0
   17.9800   37.6150  125.0010 C   0  0  0  0  0  0  0  0  0  0  0  0
   16.6720   37.8990  124.5720 C   0  0  0  0  0  3  0  0  0  0  0  0
   18.1960   36.3560  125.5860 C   0  0  0  0  0  3  0  0  0  0  0  0
   17.1450   35.4400  125.7800 C   0  0  0  0  0  0  0  0  0  0  0  0
   15.8410   35.7710  125.3670 C   0  0  0  0  0  0  0  0  0  0  0  0
   19.1570   38.6160  124.8040 C   0  0  0  0  0  0  0  0  0  0  0  0
   19.5090   39.2510  126.1730 C   0  0  0  0  0  1  0  0  0  0  0  0
   18.7570   39.7810  123.8780 C   0  0  0  0  0  1  0  0  0  0  0  0
   20.3470   37.7720  124.2320 C   0  0  0  0  0  2  0  0  0  0  0  0
   20.7740   36.3770  124.7900 C   0  0  0  0  0  0  0  0  0  0  0  0
   22.2770   36.0980  124.6700 C   0  0  0  0  0  1  0  0  0  0  0  0
   19.9860   35.2230  124.1440 C   0  0  0  0  0  1  0  0  0  0  0  0
   20.4190   36.3700  126.2980 C   0  0  0  0  0  1  0  0  0  0  0  0
   17.4400   34.1930  126.4010 N   0  0  0  0  0  0  0  0  0  0  0  0
   17.1540   33.9520  127.7040 N   0  0  0  0  0  0  0  0  0  0  0  0
   18.0260   33.1770  125.7100 N   0  0  0  0  0  0  0  0  0  0  0  0
   17.5740   32.6930  127.8850 C   0  0  0  0  0  0  0  0  0  0  0  0
   18.1310   32.2060  126.6270 C   0  0  0  0  0  0  0  0  0  0  0  0
   17.5320   31.9000  129.0450 C   0  0  0  0  0  3  0  0  0  0  0  0
   18.6700   30.9140  126.4920 C   0  0  0  0  0  3  0  0  0  0  0  0
   18.0720   30.6090  128.8890 C   0  0  0  0  0  3  0  0  0  0  0  0
   18.6200   30.1370  127.6650 C   0  0  0  0  0  3  0  0  0  0  0  0
   14.7870   34.9210  125.5650 O   0  0  0  0  0  0  0  0  0  0  0  0
   15.1060   34.0870  125.9690 H   0  0  0  0  0  0  0  0  0  0  0  0
   13.9970   39.0050  124.1210 C   0  0  0  0  0  0  0  0  0  0  0  0
   15.0800   39.8480  123.7970 C   0  0  0  0  0  3  0  0  0  0  0  0
   12.7210   39.5630  124.2720 C   0  0  0  0  0  0  0  0  0  0  0  0
   14.9340   41.2380  123.6160 C   0  0  0  0  0  0  0  0  0  0  0  0
   12.5290   40.9370  124.0670 C   0  0  0  0  0  0  0  0  0  0  0  0
   13.6310   41.7550  123.7400 C   0  0  0  0  0  3  0  0  0  0  0  0
   11.7060   38.7060  124.6140 O   0  0  0  0  0  0  0  0  0  0  0  0
   10.8620   39.2080  124.6170 H   0  0  0  0  0  0  0  0  0  0  0  0
   16.1650   42.1220  123.2290 C   0  0  0  0  0  0  0  0  0  0  0  0
   15.7860   42.8220  121.9030 C   0  0  0  0  0  1  0  0  0  0  0  0
   17.3900   41.2170  122.9940 C   0  0  0  0  0  1  0  0  0  0  0  0
   16.4770   43.1930  124.3420 C   0  0  0  0  0  2  0  0  0  0  0  0
   17.0890   42.8760  125.7490 C   0  0  0  0  0  0  0  0  0  0  0  0
   16.6460   41.4320  126.1100 C   0  0  0  0  0  1  0  0  0  0  0  0
   16.6030   43.7950  126.8730 C   0  0  0  0  0  1  0  0  0  0  0  0
   18.6290   42.8650  125.7220 C   0  0  0  0  0  1  0  0  0  0  0  0
   11.2400   41.5280  124.1640 N   0  0  0  0  0  0  0  0  0  0  0  0
   11.0600   42.8080  124.5720 N   0  0  0  0  0  0  0  0  0  0  0  0
   10.1150   40.8280  123.8420 N   0  0  0  0  0  0  0  0  0  0  0  0
    9.7340   42.9730  124.4970 C   0  0  0  0  0  0  0  0  0  0  0  0
    9.1360   41.7230  124.0350 C   0  0  0  0  0  0  0  0  0  0  0  0
    8.9630   44.1120  124.7890 C   0  0  0  0  0  3  0  0  0  0  0  0
    7.7500   41.5740  123.8510 C   0  0  0  0  0  3  0  0  0  0  0  0
    7.5780   43.9450  124.5940 C   0  0  0  0  0  3  0  0  0  0  0  0
    6.9970   42.7280  124.1450 C   0  0  0  0  0  3  0  0  0  0  0  0
  1  2  1  0  0  0  0
  2  7  1  0  0  0  0
  3  5  2  0  0  0  0
  4  2  2  0  0  0  0
  4  3  1  0  0  0  0
  5  6  1  0  0  0  0
  6 16  1  0  0  0  0
  7 25  1  0  0  0  0
  7  6  2  0  0  0  0
  8  3  1  0  0  0  0
  8  9  1  0  0  0  0
 10  8  1  0  0  0  0
 11 12  1  0  0  0  0
 11  8  1  0  0  0  0
 12 15  1  0  0  0  0
 13 12  1  0  0  0  0
 14 12  1  0  0  0  0
 16 17  1  0  0  0  0
 17 19  2  0  0  0  0
 18 16  1  0  0  0  0
 18 20  2  0  0  0  0
 19 21  1  0  0  0  0
 20 19  1  0  0  0  0
 22 20  1  0  0  0  0
 22 24  2  0  0  0  0
 23 21  2  0  0  0  0
 24 23  1  0  0  0  0
 25 26  1  0  0  0  0
 27  1  1  0  0  0  0
 27 29  1  0  0  0  0
 28 27  2  0  0  0  0
 29 33  1  0  0  0  0
 30 32  2  0  0  0  0
 30 28  1  0  0  0  0
 31 43  1  0  0  0  0
 31 29  2  0  0  0  0
 32 31  1  0  0  0  0
 33 34  1  0  0  0  0
 35 30  1  0  0  0  0
 35 38  1  0  0  0  0
 36 35  1  0  0  0  0
 37 35  1  0  0  0  0
 38 39  1  0  0  0  0
 39 40  1  0  0  0  0
 39 41  1  0  0  0  0
 42 39  1  0  0  0  0
 43 44  1  0  0  0  0
 45 47  2  0  0  0  0
 45 43  1  0  0  0  0
 46 44  2  0  0  0  0
 46 48  1  0  0  0  0
 47 46  1  0  0  0  0
 49 47  1  0  0  0  0
 49 51  2  0  0  0  0
 50 48  2  0  0  0  0
 51 50  1  0  0  0  0
M  END
>  <minimizedAffinity>
-7.36334515

>  <CNNscore>
0.319910318

>  <CNNaffinity>
7.95311737

$$$$
