
 OpenBabel08012610263D

 28 32  0  0  1  0  0  0  0  0999 V2000
   18.1910   32.4530  127.0540 C   0  0  2  0  0  3  0  0  0  0  0  0
   19.1450   32.1780  128.2420 C   0  0  2  0  0  3  0  0  0  0  0  0
   20.5710   31.7770  127.8360 C   0  0  0  0  0  2  0  0  0  0  0  0
   20.5740   30.2540  127.8560 C   0  0  0  0  0  2  0  0  0  0  0  0
   19.1130   29.8830  128.0710 C   0  0  2  0  0  3  0  0  0  0  0  0
   18.2850   29.8640  126.7650 C   0  0  0  0  0  2  0  0  0  0  0  0
   18.0400   31.2430  126.0710 C   0  0  2  0  0  3  0  0  0  0  0  0
   18.5940   30.9750  128.9060 N   0  0  0  0  0  0  0  0  0  0  0  0
   18.9900   30.8750  130.3100 C   0  0  0  0  0  1  0  0  0  0  0  0
   18.4350   33.7900  126.4250 C   0  0  0  0  0  0  0  0  0  0  0  0
   18.5650   35.8000  125.4830 C   0  0  0  0  0  0  0  0  0  0  0  0
   17.6620   34.7590  125.8310 C   0  0  0  0  0  3  0  0  0  0  0  0
   19.8170   35.4480  125.8190 N   0  0  0  0  0  0  0  0  0  0  0  0
   19.7300   34.2060  126.4100 O   0  0  0  0  0  0  0  0  0  0  0  0
   18.2650   37.0880  124.8540 C   0  0  0  0  0  0  0  0  0  0  0  0
   17.6740   39.5690  123.6360 C   0  0  0  0  0  0  0  0  0  0  0  0
   18.5240   39.5060  124.7440 C   0  0  0  0  0  3  0  0  0  0  0  0
   17.1100   38.3860  123.1480 C   0  0  0  0  0  3  0  0  0  0  0  0
   18.8210   38.2780  125.3440 C   0  0  0  0  0  3  0  0  0  0  0  0
   17.4090   37.1580  123.7470 C   0  0  0  0  0  3  0  0  0  0  0  0
   17.3260   40.8880  123.0110 C   0  0  0  0  0  1  0  0  0  0  0  0
   18.6680   31.4000  124.6830 C   0  0  0  0  0  0  0  0  0  0  0  0
   19.8840   32.1070  124.5740 C   0  0  0  0  0  3  0  0  0  0  0  0
   18.1140   30.8740  123.5100 C   0  0  0  0  0  3  0  0  0  0  0  0
   20.5330   32.2580  123.3470 C   0  0  0  0  0  3  0  0  0  0  0  0
   18.7600   31.0250  122.2770 C   0  0  0  0  0  3  0  0  0  0  0  0
   19.9690   31.7110  122.2010 C   0  0  0  0  0  0  0  0  0  0  0  0
   20.7640   31.8780  120.6860 Cl  0  0  0  0  0  0  0  0  0  0  0  0
  1 10  1  6  0  0  0
  1  2  1  0  0  0  0
  2  3  1  6  0  0  0
  2  8  1  0  0  0  0
  3  4  1  0  0  0  0
  4  5  1  0  0  0  0
  5  6  1  6  0  0  0
  5  8  1  0  0  0  0
  7 22  1  6  0  0  0
  7  6  1  0  0  0  0
  7  1  1  0  0  0  0
  8  9  1  0  0  0  0
 11 13  2  0  0  0  0
 11 12  1  0  0  0  0
 12 10  2  0  0  0  0
 13 14  1  0  0  0  0
 14 10  1  0  0  0  0
 15 19  1  0  0  0  0
 15 11  1  0  0  0  0
 16 17  1  0  0  0  0
 17 19  2  0  0  0  0
 18 16  2  0  0  0  0
 18 20  1  0  0  0  0
 20 15  2  0  0  0  0
 21 16  1  0  0  0  0
 23 22  1  0  0  0  0
 24 22  2  0  0  0  0
 25 23  2  0  0  0  0
 26 24  1  0  0  0  0
 27 26  2  0  0  0  0
 27 25  1  0  0  0  0
 28 27  1  0  0  0  0
M  END
>  <minimizedAffinity>
-4.53770781

>  <CNNscore>
0.302619606

>  <CNNaffinity>
6.16618586

$$$$
