
 OpenBabel08012613363D

 42 46  0  0  1  0  0  0  0  0999 V2000
   19.2390   38.0760  124.2100 C   0  0  0  0  0  0  0  0  0  0  0  0
   18.1250   37.2250  124.1600 C   0  0  0  0  0  3  0  0  0  0  0  0
   18.2270   35.8430  124.3850 C   0  0  0  0  0  3  0  0  0  0  0  0
   19.4620   35.2370  124.6510 C   0  0  0  0  0  0  0  0  0  0  0  0
   20.5730   36.0840  124.6900 C   0  0  0  0  0  3  0  0  0  0  0  0
   20.4640   37.4710  124.4680 C   0  0  0  0  0  3  0  0  0  0  0  0
   19.0160   39.4420  123.9560 N   0  0  0  0  0  4  0  0  0  0  0  0
   19.1490   39.6670  122.9650 H   0  0  0  0  0  0  0  0  0  0  0  0
   18.5120   40.5240  124.6720 C   0  0  0  0  0  0  0  0  0  0  0  0
   14.7770   44.2860  125.2600 C   0  0  0  0  0  0  0  0  0  0  0  0
   15.9030   44.2300  126.0940 C   0  0  0  0  0  3  0  0  0  0  0  0
   14.5630   43.4230  124.2300 N   0  0  0  0  0  0  0  0  0  0  0  0
   16.8650   43.2370  125.8870 C   0  0  0  0  0  3  0  0  0  0  0  0
   15.5120   42.4940  124.0760 C   0  0  0  0  0  0  0  0  0  0  0  0
   16.6580   42.3380  124.8580 C   0  0  0  0  0  0  0  0  0  0  0  0
   15.4750   41.5430  123.0700 N   0  0  0  0  0  0  0  0  0  0  0  0
   17.3820   41.1780  124.3080 C   0  0  2  0  0  3  0  0  0  0  0  0
   16.5700   40.7120  123.1200 C   0  0  0  0  0  0  0  0  0  0  0  0
   16.8310   39.7900  122.3680 O   0  0  0  0  0  0  0  0  0  0  0  0
   14.7370   41.4870  122.3870 H   0  0  0  0  0  0  0  0  0  0  0  0
   13.7530   45.3450  125.5160 C   0  0  0  0  0  0  0  0  0  0  0  0
   13.5680   46.2980  124.7730 O   0  0  0  0  0  0  0  0  0  0  0  0
   13.0880   45.1000  126.6740 O   0  0  0  0  0  0  0  0  0  0  0  0
   11.6670   45.0930  126.5470 C   0  0  0  0  0  1  0  0  0  0  0  0
   19.2400   41.0150  125.8560 C   0  0  0  0  0  0  0  0  0  0  0  0
   18.8780   40.5800  127.1390 C   0  0  0  0  0  3  0  0  0  0  0  0
   20.3220   41.8980  125.7080 C   0  0  0  0  0  3  0  0  0  0  0  0
   19.5880   41.0200  128.2580 C   0  0  0  0  0  3  0  0  0  0  0  0
   21.0300   42.3340  126.8300 C   0  0  0  0  0  3  0  0  0  0  0  0
   20.6650   41.8940  128.1020 C   0  0  0  0  0  3  0  0  0  0  0  0
   19.5580   33.8130  124.9030 N   0  0  0  0  0  0  0  0  0  0  0  0
   20.4620   33.0580  124.0300 C   0  0  0  0  0  1  0  0  0  0  0  0
   18.9020   33.2090  126.0030 C   0  0  0  0  0  0  0  0  0  0  0  0
   17.8470   32.5790  125.9040 O   0  0  0  0  0  0  0  0  0  0  0  0
   19.5790   33.4090  127.3850 C   0  0  0  0  0  2  0  0  0  0  0  0
   20.0200   32.1480  128.0270 N   0  0  0  0  0  0  0  0  0  0  0  0
   20.1250   31.0490  127.0350 C   0  0  0  0  0  2  0  0  0  0  0  0
   19.1360   31.7700  129.1490 C   0  0  0  0  0  2  0  0  0  0  0  0
   19.7850   29.6530  127.6040 C   0  0  0  0  0  2  0  0  0  0  0  0
   17.9770   30.8320  128.7460 C   0  0  0  0  0  2  0  0  0  0  0  0
   18.4300   29.5460  128.1780 N   0  0  0  0  0  0  0  0  0  0  0  0
   17.4620   29.0390  127.2100 C   0  0  0  0  0  1  0  0  0  0  0  0
  1  6  1  0  0  0  0
  2  1  2  0  0  0  0
  2  3  1  0  0  0  0
  3  4  2  0  0  0  0
  4  5  1  0  0  0  0
  4 31  1  0  0  0  0
  6  5  2  0  0  0  0
  7  1  1  0  0  0  0
  7  9  2  0  0  0  0
  8  7  1  0  0  0  0
  9 25  1  0  0  0  0
 10 21  1  0  0  0  0
 10 11  1  0  0  0  0
 12 10  2  0  0  0  0
 13 11  2  0  0  0  0
 14 12  1  0  0  0  0
 14 15  2  0  0  0  0
 15 13  1  0  0  0  0
 16 18  1  0  0  0  0
 16 14  1  0  0  0  0
 17  9  1  1  0  0  0
 17 15  1  0  0  0  0
 18 17  1  0  0  0  0
 19 18  2  0  0  0  0
 20 16  1  0  0  0  0
 21 23  1  0  0  0  0
 22 21  2  0  0  0  0
 24 23  1  0  0  0  0
 25 26  1  0  0  0  0
 26 28  2  0  0  0  0
 27 25  2  0  0  0  0
 27 29  1  0  0  0  0
 29 30  2  0  0  0  0
 30 28  1  0  0  0  0
 31 33  1  0  0  0  0
 32 31  1  0  0  0  0
 33 35  1  0  0  0  0
 34 33  2  0  0  0  0
 35 36  1  0  0  0  0
 36 38  1  0  0  0  0
 37 39  1  0  0  0  0
 37 36  1  0  0  0  0
 39 41  1  0  0  0  0
 40 38  1  0  0  0  0
 41 40  1  0  0  0  0
 42 41  1  0  0  0  0
M  END
>  <minimizedAffinity>
-9.22428703

>  <CNNscore>
0.211410448

>  <CNNaffinity>
6.42248487

$$$$
