
 OpenBabel08012616323D

 41 45  0  0  1  0  0  0  0  0999 V2000
   17.6970   38.3470  127.6420 C   0  0  0  0  0  1  0  0  0  0  0  0
   17.2110   39.7890  127.5130 C   0  0  2  0  0  3  0  0  0  0  0  0
   15.8410   39.8570  126.7870 C   0  0  0  0  0  2  0  0  0  0  0  0
   16.0760   40.7720  125.5890 C   0  0  1  0  0  3  0  0  0  0  0  0
   14.8650   41.4440  124.9200 C   0  0  2  0  0  3  0  0  0  0  0  0
   13.8210   40.3920  124.5110 C   0  0  0  0  0  2  0  0  0  0  0  0
   12.6560   40.9970  123.7370 C   0  0  2  0  0  3  0  0  0  0  0  0
   11.8370   39.9750  123.3580 F   0  0  0  0  0  0  0  0  0  0  0  0
   13.1550   41.7740  122.5470 C   0  0  0  0  0  0  0  0  0  0  0  0
   12.7770   41.4460  121.2990 C   0  0  0  0  0  3  0  0  0  0  0  0
   13.3050   42.1460  120.1110 C   0  0  0  0  0  0  0  0  0  0  0  0
   12.9520   41.8450  118.9790 O   0  0  0  0  0  0  0  0  0  0  0  0
   14.2810   43.2280  120.3450 C   0  0  0  0  0  3  0  0  0  0  0  0
   14.6590   43.5610  121.5860 C   0  0  0  0  0  3  0  0  0  0  0  0
   14.1570   42.8980  122.8690 C   0  0  1  0  0  0  0  0  0  0  0  0
   13.4000   44.0010  123.6470 C   0  0  0  0  0  1  0  0  0  0  0  0
   15.3610   42.2550  123.6750 C   0  0  2  0  0  0  0  0  0  0  0  0
   15.9320   41.3160  122.8270 F   0  0  0  0  0  0  0  0  0  0  0  0
   16.5290   43.2260  124.0350 C   0  0  2  0  0  3  0  0  0  0  0  0
   17.6540   42.5490  124.8510 C   0  0  0  0  0  2  0  0  0  0  0  0
   17.1400   41.7750  126.0900 C   0  0  1  0  0  0  0  0  0  0  0  0
   16.5890   42.7690  127.1530 C   0  0  0  0  0  1  0  0  0  0  0  0
   18.1720   40.7720  126.7480 C   0  0  2  0  0  0  0  0  0  0  0  0
   18.8340   40.0860  125.6570 O   0  0  0  0  0  0  0  0  0  0  0  0
   18.9280   38.7310  125.6670 C   0  0  0  0  0  0  0  0  0  0  0  0
   19.8050   38.0900  126.2260 O   0  0  0  0  0  0  0  0  0  0  0  0
   17.8150   38.1280  124.8870 C   0  0  0  0  0  3  0  0  0  0  0  0
   17.3730   36.6780  125.0380 C   0  0  0  0  0  0  0  0  0  0  0  0
   18.0200   37.1620  123.7230 C   0  0  0  0  0  0  0  0  0  0  0  0
   15.8820   36.3990  125.0570 C   0  0  0  0  0  1  0  0  0  0  0  0
   18.1240   35.7450  125.9650 C   0  0  0  0  0  1  0  0  0  0  0  0
   19.4050   36.6850  123.3390 C   0  0  0  0  0  1  0  0  0  0  0  0
   17.1570   37.3880  122.4970 C   0  0  0  0  0  1  0  0  0  0  0  0
   19.1240   41.5350  127.7070 C   0  0  0  0  0  0  0  0  0  0  0  0
   20.1440   41.0820  128.2110 O   0  0  0  0  0  0  0  0  0  0  0  0
   18.6420   42.7880  127.9520 O   0  0  0  0  0  0  0  0  0  0  0  0
   18.3620   43.0300  129.3370 C   0  0  0  0  0  2  0  0  0  0  0  0
   18.5830   41.7960  130.1030 C   0  0  0  0  0  0  0  0  0  0  0  0
   18.7620   40.8220  130.7130 N   0  0  0  0  0  0  0  0  0  0  0  0
   16.0750   44.3860  124.7260 O   0  0  0  0  0  0  0  0  0  0  0  0
   16.8390   44.9730  124.8690 H   0  0  0  0  0  0  0  0  0  0  0  0
  2  1  1  6  0  0  0
  3  2  1  0  0  0  0
  4 21  1  0  0  0  0
  4  3  1  1  0  0  0
  5  6  1  6  0  0  0
  5  4  1  0  0  0  0
  7  8  1  6  0  0  0
  7  6  1  0  0  0  0
  9 15  1  0  0  0  0
  9  7  1  0  0  0  0
 10  9  2  0  0  0  0
 11 13  1  0  0  0  0
 11 10  1  0  0  0  0
 12 11  2  0  0  0  0
 13 14  2  0  0  0  0
 14 15  1  0  0  0  0
 15 16  1  1  0  0  0
 15 17  1  0  0  0  0
 17 18  1  6  0  0  0
 17 19  1  0  0  0  0
 17  5  1  0  0  0  0
 19 40  1  1  0  0  0
 19 20  1  0  0  0  0
 20 21  1  0  0  0  0
 21 23  1  0  0  0  0
 21 22  1  1  0  0  0
 23 24  1  6  0  0  0
 23  2  1  0  0  0  0
 23 34  1  0  0  0  0
 24 25  1  0  0  0  0
 25 26  2  0  0  0  0
 27 28  1  0  0  0  0
 27 25  1  0  0  0  0
 28 30  1  0  0  0  0
 28 31  1  0  0  0  0
 29 27  1  0  0  0  0
 29 28  1  0  0  0  0
 32 29  1  0  0  0  0
 33 29  1  0  0  0  0
 34 36  1  0  0  0  0
 34 35  2  0  0  0  0
 36 37  1  0  0  0  0
 37 38  1  0  0  0  0
 38 39  3  0  0  0  0
 40 41  1  0  0  0  0
M  END
>  <minimizedAffinity>
7.00560188

>  <CNNscore>
0.417878777

>  <CNNaffinity>
6.31116056

$$$$
