
 OpenBabel08012611233D

 35 37  0  0  1  0  0  0  0  0999 V2000
   13.7900   39.5270  121.6530 C   0  0  0  0  0  2  0  0  0  0  0  0
   12.6160   38.8150  122.2680 C   0  0  0  0  0  3  0  0  0  0  0  0
   12.5950   38.1020  123.4060 C   0  0  0  0  0  3  0  0  0  0  0  0
   13.7500   37.8260  124.3290 C   0  0  0  0  0  2  0  0  0  0  0  0
   13.4790   38.2910  125.7650 C   0  0  0  0  0  2  0  0  0  0  0  0
   14.4300   37.6830  126.7910 C   0  0  0  0  0  2  0  0  0  0  0  0
   13.7550   36.5810  127.5560 C   0  0  0  0  0  0  0  0  0  0  0  0
   14.3190   35.6820  128.1590 O   0  0  0  0  0  0  0  0  0  0  0  0
   12.4130   36.6710  127.5410 O   0  0  0  0  0  0  0  0  0  0  0  0
   12.1200   35.8880  128.0560 H   0  0  0  0  0  0  0  0  0  0  0  0
   13.7010   41.0590  121.7020 C   0  0  2  0  0  3  0  0  0  0  0  0
   14.0230   41.6590  123.0890 C   0  0  2  0  0  3  0  0  0  0  0  0
   12.3140   41.6520  121.4100 C   0  0  2  0  0  3  0  0  0  0  0  0
   13.5880   43.1250  122.8910 C   0  0  1  0  0  3  0  0  0  0  0  0
   12.3400   43.0640  122.0040 C   0  0  0  0  0  2  0  0  0  0  0  0
   15.4420   41.3990  123.5430 C   0  0  0  0  0  3  0  0  0  0  0  0
   15.8530   40.8270  124.6900 C   0  0  0  0  0  3  0  0  0  0  0  0
   17.2890   40.5320  125.0800 C   0  0  0  0  0  0  0  0  0  0  0  0
   17.3890   40.4220  126.5110 O   0  0  0  0  0  0  0  0  0  0  0  0
   18.0860   41.6410  124.6250 O   0  0  0  0  0  0  0  0  0  0  0  0
   18.4150   41.3410  126.8830 C   0  0  0  0  0  2  0  0  0  0  0  0
   18.3730   42.3880  125.8030 C   0  0  0  0  0  2  0  0  0  0  0  0
   17.7750   39.2320  124.3900 C   0  0  0  0  0  2  0  0  0  0  0  0
   19.0220   38.7640  124.9330 O   0  0  0  0  0  0  0  0  0  0  0  0
   19.2210   37.4130  125.0180 C   0  0  0  0  0  0  0  0  0  0  0  0
   20.3460   36.7220  124.5630 C   0  0  0  0  0  3  0  0  0  0  0  0
   18.1610   36.6970  125.5840 C   0  0  0  0  0  3  0  0  0  0  0  0
   20.4330   35.3360  124.7160 C   0  0  0  0  0  3  0  0  0  0  0  0
   18.2480   35.3140  125.7280 C   0  0  0  0  0  0  0  0  0  0  0  0
   19.3830   34.6290  125.3020 C   0  0  0  0  0  3  0  0  0  0  0  0
   16.9450   34.4420  126.4380 Cl  0  0  0  0  0  0  0  0  0  0  0  0
   11.2850   40.9230  122.0730 O   0  0  0  0  0  0  0  0  0  0  0  0
   11.0930   40.1350  121.5350 H   0  0  0  0  0  0  0  0  0  0  0  0
   13.3100   43.7570  124.1320 O   0  0  0  0  0  0  0  0  0  0  0  0
   12.8860   44.6110  123.9430 H   0  0  0  0  0  0  0  0  0  0  0  0
  1  2  1  0  0  0  0
  2  3  2  0  0  0  0
  3  4  1  0  0  0  0
  4  5  1  0  0  0  0
  5  6  1  0  0  0  0
  6  7  1  0  0  0  0
  7  8  2  0  0  0  0
  9  7  1  0  0  0  0
  9 10  1  0  0  0  0
 11  1  1  1  0  0  0
 11 12  1  0  0  0  0
 12 16  1  6  0  0  0
 13 11  1  0  0  0  0
 13 15  1  0  0  0  0
 13 32  1  1  0  0  0
 14 12  1  0  0  0  0
 14 34  1  1  0  0  0
 15 14  1  0  0  0  0
 16 17  2  0  0  0  0
 17 18  1  0  0  0  0
 18 19  1  0  0  0  0
 19 21  1  0  0  0  0
 20 18  1  0  0  0  0
 20 22  1  0  0  0  0
 22 21  1  0  0  0  0
 23 24  1  0  0  0  0
 23 18  1  0  0  0  0
 24 25  1  0  0  0  0
 25 27  1  0  0  0  0
 26 28  1  0  0  0  0
 26 25  2  0  0  0  0
 27 29  2  0  0  0  0
 28 30  2  0  0  0  0
 29 31  1  0  0  0  0
 30 29  1  0  0  0  0
 33 32  1  0  0  0  0
 35 34  1  0  0  0  0
M  END
>  <minimizedAffinity>
-7.81828833

>  <CNNscore>
0.642531395

>  <CNNaffinity>
6.09732389

$$$$
