
 OpenBabel08012612283D

 33 35  0  0  0  0  0  0  0  0999 V2000
   17.5650   36.0200  125.7800 C   0  0  0  0  0  0  0  0  0  0  0  0
   16.4170   36.3280  126.0760 O   0  0  0  0  0  0  0  0  0  0  0  0
   18.4500   36.8010  125.0460 N   0  0  0  0  0  0  0  0  0  0  0  0
   19.0930   36.2670  124.4790 H   0  0  0  0  0  0  0  0  0  0  0  0
   18.0660   34.6600  126.1220 C   0  0  0  0  0  0  0  0  0  0  0  0
   19.4860   32.7780  125.5350 C   0  0  0  0  0  0  0  0  0  0  0  0
   18.9760   34.0450  125.2440 C   0  0  0  0  0  3  0  0  0  0  0  0
   19.0700   32.1490  126.7170 C   0  0  0  0  0  0  0  0  0  0  0  0
   18.1350   32.7300  127.5760 C   0  0  0  0  0  3  0  0  0  0  0  0
   17.6330   33.9940  127.2770 C   0  0  0  0  0  3  0  0  0  0  0  0
   20.3710   32.0790  124.7590 O   0  0  0  0  0  0  0  0  0  0  0  0
   21.0000   32.7870  123.6980 C   0  0  0  0  0  1  0  0  0  0  0  0
   19.5460   30.8730  127.0320 O   0  0  0  0  0  0  0  0  0  0  0  0
   18.7120   30.2130  127.9240 C   0  0  0  0  0  0  0  0  0  0  0  0
   18.7870   30.2170  129.1460 O   0  0  0  0  0  0  0  0  0  0  0  0
   17.6320   29.5170  127.1500 C   0  0  0  0  0  1  0  0  0  0  0  0
   18.1090   38.1020  124.6000 C   0  0  0  0  0  0  0  0  0  0  0  0
   18.6560   39.2570  125.2070 C   0  0  0  0  0  0  0  0  0  0  0  0
   17.2400   38.2540  123.4950 C   0  0  0  0  0  0  0  0  0  0  0  0
   18.3030   40.5360  124.7660 C   0  0  0  0  0  3  0  0  0  0  0  0
   16.9080   39.5570  123.0620 C   0  0  0  0  0  3  0  0  0  0  0  0
   17.4250   40.6790  123.7010 C   0  0  0  0  0  0  0  0  0  0  0  0
   20.0410   39.1870  126.5200 Br  0  0  0  0  0  0  0  0  0  0  0  0
   16.9500   42.4050  123.0960 Br  0  0  0  0  0  0  0  0  0  0  0  0
   16.5780   37.0990  122.7600 C   0  0  0  0  0  2  0  0  0  0  0  0
   15.1200   37.2890  122.5710 N   0  0  0  0  0  0  0  0  0  0  0  0
   14.8570   37.6830  121.1790 C   0  0  0  0  0  1  0  0  0  0  0  0
   14.5650   38.2460  123.5680 C   0  0  0  0  0  3  0  0  0  0  0  0
   13.7060   39.3780  122.9490 C   0  0  0  0  0  2  0  0  0  0  0  0
   13.6960   37.4800  124.5950 C   0  0  0  0  0  2  0  0  0  0  0  0
   13.0940   40.2950  124.0080 C   0  0  0  0  0  2  0  0  0  0  0  0
   13.0840   38.4010  125.6500 C   0  0  0  0  0  2  0  0  0  0  0  0
   12.2650   39.5160  125.0160 C   0  0  0  0  0  2  0  0  0  0  0  0
  1  2  2  0  0  0  0
  1  5  1  0  0  0  0
  3  1  1  0  0  0  0
  4  3  1  0  0  0  0
  5 10  1  0  0  0  0
  6  8  2  0  0  0  0
  7  6  1  0  0  0  0
  7  5  2  0  0  0  0
  8 13  1  0  0  0  0
  8  9  1  0  0  0  0
 10  9  2  0  0  0  0
 11  6  1  0  0  0  0
 12 11  1  0  0  0  0
 13 14  1  0  0  0  0
 14 15  2  0  0  0  0
 16 14  1  0  0  0  0
 17  3  1  0  0  0  0
 17 18  1  0  0  0  0
 18 23  1  0  0  0  0
 19 17  2  0  0  0  0
 20 18  2  0  0  0  0
 21 19  1  0  0  0  0
 21 22  2  0  0  0  0
 22 20  1  0  0  0  0
 24 22  1  0  0  0  0
 25 19  1  0  0  0  0
 26 25  1  0  0  0  0
 26 28  1  0  0  0  0
 27 26  1  0  0  0  0
 28 30  1  0  0  0  0
 29 28  1  0  0  0  0
 29 31  1  0  0  0  0
 30 32  1  0  0  0  0
 31 33  1  0  0  0  0
 33 32  1  0  0  0  0
M  END
>  <minimizedAffinity>
-8.41000557

>  <CNNscore>
0.318876565

>  <CNNaffinity>
6.51499367

$$$$
