
 OpenBabel08012604373D

 27 29  0  0  1  0  0  0  0  0999 V2000
   13.4160   35.7480  126.6830 C   0  0  0  0  0  1  0  0  0  0  0  0
   13.8790   36.8700  125.8910 N   0  0  0  0  0  0  0  0  0  0  0  0
   13.3020   38.0980  126.1030 C   0  0  0  0  0  0  0  0  0  0  0  0
   12.4240   38.3330  126.9290 O   0  0  0  0  0  0  0  0  0  0  0  0
   13.7920   39.1930  125.2640 C   0  0  0  0  0  3  0  0  0  0  0  0
   14.8110   39.0240  124.4090 C   0  0  0  0  0  0  0  0  0  0  0  0
   15.4170   37.7750  124.3400 N   0  0  0  0  0  0  0  0  0  0  0  0
   14.9850   36.6740  125.0800 C   0  0  0  0  0  0  0  0  0  0  0  0
   15.5630   35.5850  125.0380 O   0  0  0  0  0  0  0  0  0  0  0  0
   16.6090   37.5900  123.4990 C   0  0  0  0  0  2  0  0  0  0  0  0
   17.7920   36.9820  124.2380 C   0  0  0  0  0  0  0  0  0  0  0  0
   18.1390   35.6370  124.0000 C   0  0  0  0  0  3  0  0  0  0  0  0
   18.5890   37.7280  125.1290 C   0  0  0  0  0  0  0  0  0  0  0  0
   19.2220   35.0430  124.6520 C   0  0  0  0  0  3  0  0  0  0  0  0
   19.6760   37.1220  125.7810 C   0  0  0  0  0  3  0  0  0  0  0  0
   18.3370   39.1160  125.3980 C   0  0  0  0  0  0  0  0  0  0  0  0
   19.9870   35.7840  125.5460 C   0  0  0  0  0  3  0  0  0  0  0  0
   18.1360   40.2380  125.6180 N   0  0  0  0  0  0  0  0  0  0  0  0
   15.2450   40.0860  123.6070 N   0  0  0  0  0  0  0  0  0  0  0  0
   15.6040   41.3950  124.1790 C   0  0  0  0  0  2  0  0  0  0  0  0
   14.8550   40.1460  122.1840 C   0  0  0  0  0  2  0  0  0  0  0  0
   14.4910   42.4220  123.9820 C   0  0  0  0  0  2  0  0  0  0  0  0
   13.6840   41.1330  121.9680 C   0  0  1  0  0  3  0  0  0  0  0  0
   14.0570   42.5150  122.5210 C   0  0  0  0  0  2  0  0  0  0  0  0
   13.3060   41.2660  120.5560 N   0  0  0  0  0  0  0  0  0  0  0  0
   13.0680   40.3500  120.1760 H   0  0  0  0  0  0  0  0  0  0  0  0
   14.1030   41.5960  120.0110 H   0  0  0  0  0  0  0  0  0  0  0  0
  2  3  1  0  0  0  0
  2  1  1  0  0  0  0
  3  4  2  0  0  0  0
  5  3  1  0  0  0  0
  6  5  2  0  0  0  0
  7  6  1  0  0  0  0
  7  8  1  0  0  0  0
  8  2  1  0  0  0  0
  9  8  2  0  0  0  0
 10 11  1  0  0  0  0
 10  7  1  0  0  0  0
 11 13  1  0  0  0  0
 12 11  2  0  0  0  0
 12 14  1  0  0  0  0
 13 16  1  0  0  0  0
 13 15  2  0  0  0  0
 14 17  2  0  0  0  0
 16 18  3  0  0  0  0
 17 15  1  0  0  0  0
 19 20  1  0  0  0  0
 19  6  1  0  0  0  0
 21 19  1  0  0  0  0
 22 20  1  0  0  0  0
 23 25  1  6  0  0  0
 23 21  1  0  0  0  0
 23 24  1  0  0  0  0
 24 22  1  0  0  0  0
 26 25  1  0  0  0  0
 27 25  1  0  0  0  0
M  END
>  <minimizedAffinity>
-8.00154305

>  <CNNscore>
0.298149437

>  <CNNaffinity>
5.05239534

$$$$
