
 OpenBabel08012606453D

 46 47  0  0  0  0  0  0  0  0999 V2000
   12.2130   41.1670  121.9950 C   0  0  0  0  0  0  0  0  0  0  0  0
   12.2620   41.8040  123.0350 O   0  0  0  0  0  0  0  0  0  0  0  0
   12.4240   41.6210  120.7430 O   0  0  0  0  0  0  0  0  0  0  0  0
   12.4180   43.0480  120.5730 C   0  0  0  0  0  2  0  0  0  0  0  0
   11.0440   43.6150  120.9250 C   0  0  0  0  0  2  0  0  0  0  0  0
   10.0080   42.6530  120.7590 O   0  0  0  0  0  0  0  0  0  0  0  0
    8.9860   43.0790  119.8560 C   0  0  0  0  0  2  0  0  0  0  0  0
    9.1500   44.5690  119.5660 C   0  0  0  0  0  2  0  0  0  0  0  0
    9.2070   44.8290  118.1640 O   0  0  0  0  0  0  0  0  0  0  0  0
    8.5020   43.8650  117.3820 C   0  0  0  0  0  2  0  0  0  0  0  0
    8.9590   43.9710  115.9280 C   0  0  0  0  0  2  0  0  0  0  0  0
    9.2590   42.7070  115.3460 O   0  0  0  0  0  0  0  0  0  0  0  0
    8.3020   42.1940  114.4160 C   0  0  0  0  0  2  0  0  0  0  0  0
    7.0820   41.5210  115.0580 C   0  0  0  0  0  2  0  0  0  0  0  0
    6.0940   41.2420  114.0630 O   0  0  0  0  0  0  0  0  0  0  0  0
    6.4020   40.0660  113.3260 C   0  0  0  0  0  1  0  0  0  0  0  0
   11.8920   39.8530  121.9160 O   0  0  0  0  0  0  0  0  0  0  0  0
   13.0380   39.0170  121.8330 C   0  0  0  0  0  2  0  0  0  0  0  0
   13.9970   39.3040  122.9220 N   0  0  0  0  0  0  0  0  0  0  0  0
   15.0970   40.0480  122.6670 C   0  0  0  0  0  2  0  0  0  0  0  0
   13.7500   38.8510  124.1700 C   0  0  0  0  0  3  0  0  0  0  0  0
   15.9990   40.3550  123.6840 C   0  0  0  0  0  3  0  0  0  0  0  0
   14.6160   39.1550  125.2140 C   0  0  0  0  0  3  0  0  0  0  0  0
   15.7670   39.9110  124.9850 C   0  0  0  0  0  0  0  0  0  0  0  0
   16.6310   40.3130  126.0180 N   0  0  0  0  0  0  0  0  0  0  0  0
   17.9800   40.0710  126.0940 C   0  0  0  0  0  0  0  0  0  0  0  0
   18.5700   39.1870  125.3760 N   0  0  0  0  0  0  0  0  0  0  0  0
   18.6020   40.8570  127.0820 N   0  0  0  0  0  0  0  0  0  0  0  0
   19.5220   41.6680  126.5420 C   0  0  0  0  0  0  0  0  0  0  0  0
   20.2910   42.4010  126.0830 N   0  0  0  0  0  0  0  0  0  0  0  0
   16.2140   40.8720  126.7480 H   0  0  0  0  0  0  0  0  0  0  0  0
   18.0160   41.2710  127.8040 H   0  0  0  0  0  0  0  0  0  0  0  0
   19.9660   38.8010  125.5440 C   0  0  0  0  0  2  0  0  0  0  0  0
   20.1940   37.4920  124.7920 C   0  0  0  0  0  2  0  0  0  0  0  0
   19.1310   36.4210  125.0640 C   0  0  0  0  0  2  0  0  0  0  0  0
   19.7090   35.0090  125.2120 C   0  0  0  0  0  2  0  0  0  0  0  0
   19.5160   34.1220  123.9740 C   0  0  0  0  0  2  0  0  0  0  0  0
   20.3040   32.8110  124.0180 C   0  0  0  0  0  2  0  0  0  0  0  0
   19.4630   31.7610  124.4820 O   0  0  0  0  0  0  0  0  0  0  0  0
   19.4720   31.4950  125.8230 C   0  0  0  0  0  0  0  0  0  0  0  0
   20.5510   30.9920  126.5510 C   0  0  0  0  0  3  0  0  0  0  0  0
   18.2660   31.7640  126.4790 C   0  0  0  0  0  3  0  0  0  0  0  0
   20.4260   30.7730  127.9280 C   0  0  0  0  0  3  0  0  0  0  0  0
   18.1390   31.5450  127.8530 C   0  0  0  0  0  3  0  0  0  0  0  0
   19.2230   31.0520  128.5720 C   0  0  0  0  0  0  0  0  0  0  0  0
   19.0810   30.7920  130.2660 Cl  0  0  0  0  0  0  0  0  0  0  0  0
  1  2  2  0  0  0  0
  3  1  1  0  0  0  0
  4  3  1  0  0  0  0
  4  5  1  0  0  0  0
  6  5  1  0  0  0  0
  7  6  1  0  0  0  0
  8  7  1  0  0  0  0
  9  8  1  0  0  0  0
 10  9  1  0  0  0  0
 11 10  1  0  0  0  0
 12 11  1  0  0  0  0
 13 14  1  0  0  0  0
 13 12  1  0  0  0  0
 15 14  1  0  0  0  0
 16 15  1  0  0  0  0
 17  1  1  0  0  0  0
 18 17  1  0  0  0  0
 18 19  1  0  0  0  0
 19 21  1  0  0  0  0
 20 19  1  0  0  0  0
 20 22  1  0  0  0  0
 21 23  2  0  0  0  0
 22 24  2  0  0  0  0
 24 23  1  0  0  0  0
 24 25  1  0  0  0  0
 25 26  1  0  0  0  0
 25 31  1  0  0  0  0
 26 28  1  0  0  0  0
 27 33  1  0  0  0  0
 27 26  2  0  0  0  0
 28 32  1  0  0  0  0
 29 28  1  0  0  0  0
 30 29  3  0  0  0  0
 34 35  1  0  0  0  0
 34 33  1  0  0  0  0
 35 36  1  0  0  0  0
 37 38  1  0  0  0  0
 37 36  1  0  0  0  0
 38 39  1  0  0  0  0
 39 40  1  0  0  0  0
 40 42  2  0  0  0  0
 40 41  1  0  0  0  0
 41 43  2  0  0  0  0
 42 44  1  0  0  0  0
 43 45  1  0  0  0  0
 44 45  2  0  0  0  0
 45 46  1  0  0  0  0
M  END
>  <minimizedAffinity>
-6.63845158

>  <CNNscore>
0.278728664

>  <CNNaffinity>
6.35994148

$$$$
