
 OpenBabel08012617403D

 46 48  0  0  1  0  0  0  0  0999 V2000
   16.7480   39.9690  124.3860 N   0  0  0  0  0  0  0  0  0  0  0  0
   16.5660   38.6240  124.6030 C   0  0  0  0  0  0  0  0  0  0  0  0
   16.6120   38.1250  125.7250 O   0  0  0  0  0  0  0  0  0  0  0  0
   17.0610   40.2840  123.4690 H   0  0  0  0  0  0  0  0  0  0  0  0
   16.9170   40.9010  125.4770 C   0  0  2  0  0  3  0  0  0  0  0  0
   16.7260   42.2830  124.9120 C   0  0  0  0  0  3  0  0  0  0  0  0
   15.5970   42.6810  124.3020 C   0  0  0  0  0  3  0  0  0  0  0  0
   15.4720   44.0520  123.7680 C   0  0  0  0  0  0  0  0  0  0  0  0
   14.7780   44.9340  124.2440 O   0  0  0  0  0  0  0  0  0  0  0  0
   16.2400   44.1340  122.6530 O   0  0  0  0  0  0  0  0  0  0  0  0
   15.7520   43.3630  121.5490 C   0  0  0  0  0  2  0  0  0  0  0  0
   14.7380   44.2080  120.7980 C   0  0  0  0  0  1  0  0  0  0  0  0
   18.2590   40.7530  126.2230 C   0  0  0  0  0  2  0  0  0  0  0  0
   18.8350   41.9980  126.9110 C   0  0  2  0  0  3  0  0  0  0  0  0
   20.2630   42.3030  126.4290 C   0  0  0  0  0  2  0  0  0  0  0  0
   19.0400   41.8520  128.4050 C   0  0  0  0  0  0  0  0  0  0  0  0
   21.1480   41.5940  127.4400 C   0  0  0  0  0  2  0  0  0  0  0  0
   20.3750   41.6280  128.6430 N   0  0  0  0  0  0  0  0  0  0  0  0
   18.1630   41.8920  129.2540 O   0  0  0  0  0  0  0  0  0  0  0  0
   20.7150   41.4250  129.5750 H   0  0  0  0  0  0  0  0  0  0  0  0
   16.3410   37.7730  123.3500 C   0  0  1  0  0  3  0  0  0  0  0  0
   17.1340   36.4520  123.3740 C   0  0  0  0  0  2  0  0  0  0  0  0
   17.2730   35.8660  124.7700 C   0  0  0  0  0  0  0  0  0  0  0  0
   16.3730   35.2120  125.3080 O   0  0  0  0  0  0  0  0  0  0  0  0
   18.5990   36.1190  125.5100 C   0  0  1  0  0  3  0  0  0  0  0  0
   18.8400   34.8830  126.2530 N   0  0  0  0  0  0  0  0  0  0  0  0
   19.0060   33.6590  125.6400 C   0  0  0  0  0  0  0  0  0  0  0  0
   18.9160   33.5410  124.4190 O   0  0  0  0  0  0  0  0  0  0  0  0
   18.9220   34.9830  127.2590 H   0  0  0  0  0  0  0  0  0  0  0  0
   19.3040   32.5420  126.5470 C   0  0  0  0  0  0  0  0  0  0  0  0
   19.6530   32.5700  127.9280 C   0  0  0  0  0  3  0  0  0  0  0  0
   19.2850   31.2700  126.1060 N   0  0  0  0  0  0  0  0  0  0  0  0
   19.8370   31.2550  128.2740 C   0  0  0  0  0  0  0  0  0  0  0  0
   19.6140   30.4770  127.1850 O   0  0  0  0  0  0  0  0  0  0  0  0
   20.2040   30.5630  129.5220 C   0  0  0  0  0  1  0  0  0  0  0  0
   19.7990   36.4660  124.6040 C   0  0  0  0  0  3  0  0  0  0  0  0
   20.0780   37.9700  124.5150 C   0  0  0  0  0  1  0  0  0  0  0  0
   21.0710   35.7200  125.0110 C   0  0  0  0  0  1  0  0  0  0  0  0
   14.8420   37.4760  123.1660 C   0  0  0  0  0  2  0  0  0  0  0  0
   14.0560   37.3860  124.4560 C   0  0  0  0  0  0  0  0  0  0  0  0
   13.7950   36.1430  125.0530 C   0  0  0  0  0  3  0  0  0  0  0  0
   13.6030   38.5540  125.0920 C   0  0  0  0  0  3  0  0  0  0  0  0
   13.0760   36.0680  126.2490 C   0  0  0  0  0  3  0  0  0  0  0  0
   12.8870   38.4780  126.2890 C   0  0  0  0  0  3  0  0  0  0  0  0
   12.6260   37.2360  126.8540 C   0  0  0  0  0  0  0  0  0  0  0  0
   11.9440   37.1650  128.0050 F   0  0  0  0  0  0  0  0  0  0  0  0
  1  2  1  0  0  0  0
  1  5  1  0  0  0  0
  2  3  2  0  0  0  0
  4  1  1  0  0  0  0
  5  6  1  6  0  0  0
  5 13  1  0  0  0  0
  7  6  2  0  0  0  0
  8  9  2  0  0  0  0
  8  7  1  0  0  0  0
 10  8  1  0  0  0  0
 11 10  1  0  0  0  0
 12 11  1  0  0  0  0
 14 13  1  6  0  0  0
 14 16  1  0  0  0  0
 15 14  1  0  0  0  0
 15 17  1  0  0  0  0
 16 18  1  0  0  0  0
 16 19  2  0  0  0  0
 17 18  1  0  0  0  0
 18 20  1  0  0  0  0
 21 39  1  1  0  0  0
 21 22  1  0  0  0  0
 21  2  1  0  0  0  0
 22 23  1  0  0  0  0
 23 24  2  0  0  0  0
 23 25  1  0  0  0  0
 25 36  1  6  0  0  0
 25 26  1  0  0  0  0
 26 29  1  0  0  0  0
 27 26  1  0  0  0  0
 27 30  1  0  0  0  0
 28 27  2  0  0  0  0
 30 31  1  0  0  0  0
 31 33  2  0  0  0  0
 32 30  2  0  0  0  0
 32 34  1  0  0  0  0
 33 35  1  0  0  0  0
 34 33  1  0  0  0  0
 36 38  1  0  0  0  0
 37 36  1  0  0  0  0
 39 40  1  0  0  0  0
 40 41  2  0  0  0  0
 40 42  1  0  0  0  0
 41 43  1  0  0  0  0
 42 44  2  0  0  0  0
 43 45  2  0  0  0  0
 44 45  1  0  0  0  0
 45 46  1  0  0  0  0
M  END
>  <minimizedAffinity>
-8.89740372

>  <CNNscore>
0.519867957

>  <CNNaffinity>
7.63058472

$$$$
