
 OpenBabel08012618023D

 38 41  0  0  1  0  0  0  0  0999 V2000
   16.8410   37.8960  123.6450 C   0  0  0  0  0  0  0  0  0  0  0  0
   16.8810   36.6390  124.0440 N   0  0  0  0  0  0  0  0  0  0  0  0
   18.1690   36.2640  124.4080 C   0  0  0  0  0  0  0  0  0  0  0  0
   19.0880   37.3040  124.3890 C   0  0  0  0  0  0  0  0  0  0  0  0
   20.5370   37.3000  124.7270 C   0  0  0  0  0  1  0  0  0  0  0  0
   18.3340   38.7340  123.8240 S   0  0  0  0  0  0  0  0  0  0  0  0
   15.6400   38.5260  123.0620 C   0  0  0  0  0  0  0  0  0  0  0  0
   13.3650   39.6690  121.8160 C   0  0  0  0  0  0  0  0  0  0  0  0
   13.7780   38.3800  121.4830 C   0  0  0  0  0  3  0  0  0  0  0  0
   14.1120   40.4040  122.7500 C   0  0  0  0  0  0  0  0  0  0  0  0
   14.9120   37.8260  122.0880 C   0  0  0  0  0  3  0  0  0  0  0  0
   15.2110   39.8200  123.3930 C   0  0  0  0  0  3  0  0  0  0  0  0
   12.2600   40.2960  121.2970 O   0  0  0  0  0  0  0  0  0  0  0  0
   11.9670   41.6080  121.7550 C   0  0  0  0  0  1  0  0  0  0  0  0
   13.6930   41.6850  123.0080 O   0  0  0  0  0  0  0  0  0  0  0  0
   14.5980   42.7460  122.6840 C   0  0  0  0  0  2  0  0  0  0  0  0
   15.8480   42.8480  123.5950 C   0  0  0  0  0  2  0  0  0  0  0  0
   16.2560   44.2090  123.9930 N   0  0  0  0  0  0  0  0  0  0  0  0
   15.1250   45.1020  124.3130 C   0  0  0  0  0  2  0  0  0  0  0  0
   17.1720   44.1790  125.1560 C   0  0  0  0  0  2  0  0  0  0  0  0
   14.4530   44.7920  125.6640 C   0  0  0  0  0  2  0  0  0  0  0  0
   16.4680   43.8770  126.4920 C   0  0  0  0  0  2  0  0  0  0  0  0
   15.4000   44.8020  126.7400 O   0  0  0  0  0  0  0  0  0  0  0  0
   18.4360   34.8250  124.7780 C   0  0  1  0  0  3  0  0  0  0  0  0
   19.8060   34.3080  124.3400 C   0  0  0  0  0  1  0  0  0  0  0  0
   18.0950   34.4920  126.5530 S   0  0  0  0  0  0  0  0  0  0  0  0
   18.9580   32.9590  126.7830 C   0  0  0  0  0  0  0  0  0  0  0  0
   19.8970   32.6200  125.8900 N   0  0  0  0  0  0  0  0  0  0  0  0
   18.6390   32.2500  127.8800 N   0  0  0  0  0  0  0  0  0  0  0  0
   20.4910   31.4400  126.0640 C   0  0  0  0  0  0  0  0  0  0  0  0
   19.2960   31.1020  128.0510 C   0  0  0  0  0  0  0  0  0  0  0  0
   20.2290   30.6390  127.1530 C   0  0  0  0  0  3  0  0  0  0  0  0
   21.4340   31.0690  125.1050 N   0  0  0  0  0  0  0  0  0  0  0  0
   21.2300   30.1600  124.7060 H   0  0  0  0  0  0  0  0  0  0  0  0
   21.4120   31.7850  124.3780 H   0  0  0  0  0  0  0  0  0  0  0  0
   18.9520   30.3370  129.1660 N   0  0  0  0  0  0  0  0  0  0  0  0
   18.2970   30.8770  129.7260 H   0  0  0  0  0  0  0  0  0  0  0  0
   19.7670   30.0630  129.7040 H   0  0  0  0  0  0  0  0  0  0  0  0
  1  6  1  0  0  0  0
  1  2  2  0  0  0  0
  2  3  1  0  0  0  0
  3 24  1  0  0  0  0
  4  3  2  0  0  0  0
  4  5  1  0  0  0  0
  6  4  1  0  0  0  0
  7 12  1  0  0  0  0
  7  1  1  0  0  0  0
  8 10  1  0  0  0  0
  9  8  2  0  0  0  0
  9 11  1  0  0  0  0
 10 15  1  0  0  0  0
 10 12  2  0  0  0  0
 11  7  2  0  0  0  0
 13 14  1  0  0  0  0
 13  8  1  0  0  0  0
 16 15  1  0  0  0  0
 16 17  1  0  0  0  0
 17 18  1  0  0  0  0
 18 19  1  0  0  0  0
 18 20  1  0  0  0  0
 19 21  1  0  0  0  0
 20 22  1  0  0  0  0
 21 23  1  0  0  0  0
 22 23  1  0  0  0  0
 24 25  1  1  0  0  0
 24 26  1  0  0  0  0
 26 27  1  0  0  0  0
 27 29  1  0  0  0  0
 28 30  1  0  0  0  0
 28 27  2  0  0  0  0
 29 31  2  0  0  0  0
 30 32  2  0  0  0  0
 31 36  1  0  0  0  0
 32 31  1  0  0  0  0
 33 30  1  0  0  0  0
 34 33  1  0  0  0  0
 35 33  1  0  0  0  0
 36 38  1  0  0  0  0
 36 37  1  0  0  0  0
M  END
>  <minimizedAffinity>
-8.50729275

>  <CNNscore>
0.163834408

>  <CNNaffinity>
6.4494319

$$$$
