
 OpenBabel08012615243D

 35 37  0  0  1  0  0  0  0  0999 V2000
   17.5880   39.1180  123.1980 C   0  0  2  0  0  3  0  0  0  0  0  0
   16.1230   39.2250  122.7970 C   0  0  0  0  0  1  0  0  0  0  0  0
   17.9280   37.8300  123.9070 C   0  0  0  0  0  0  0  0  0  0  0  0
   18.4820   35.4020  125.2590 C   0  0  0  0  0  0  0  0  0  0  0  0
   17.4670   35.4710  124.2880 C   0  0  0  0  0  3  0  0  0  0  0  0
   19.2360   36.5520  125.5200 C   0  0  0  0  0  3  0  0  0  0  0  0
   17.1940   36.6690  123.6220 C   0  0  0  0  0  3  0  0  0  0  0  0
   18.9630   37.7390  124.8450 C   0  0  0  0  0  0  0  0  0  0  0  0
   19.7260   38.8070  125.1110 F   0  0  0  0  0  0  0  0  0  0  0  0
   18.7330   34.1580  125.9950 C   0  0  0  0  0  0  0  0  0  0  0  0
   19.7570   33.2590  125.6300 C   0  0  0  0  0  0  0  0  0  0  0  0
   19.9680   32.0750  126.3460 C   0  0  0  0  0  0  0  0  0  0  0  0
   19.1630   31.7800  127.4470 C   0  0  0  0  0  3  0  0  0  0  0  0
   17.9410   33.8390  127.1110 C   0  0  0  0  0  3  0  0  0  0  0  0
   18.1530   32.6610  127.8300 C   0  0  0  0  0  3  0  0  0  0  0  0
   21.1910   30.9340  125.9160 Cl  0  0  0  0  0  0  0  0  0  0  0  0
   20.6010   33.5610  124.4670 C   0  0  0  0  0  0  0  0  0  0  0  0
   21.2510   34.5830  124.3410 O   0  0  0  0  0  0  0  0  0  0  0  0
   20.5410   32.5060  123.6250 O   0  0  0  0  0  0  0  0  0  0  0  0
   19.2160   32.2220  123.1640 C   0  0  0  0  0  1  0  0  0  0  0  0
   18.0010   40.2680  123.9820 N   0  0  0  0  0  0  0  0  0  0  0  0
   17.1470   40.8840  124.8630 C   0  0  0  0  0  0  0  0  0  0  0  0
   15.9740   40.5830  125.0390 O   0  0  0  0  0  0  0  0  0  0  0  0
   18.9910   40.5190  124.0160 H   0  0  0  0  0  0  0  0  0  0  0  0
   17.7680   41.9870  125.6870 C   0  0  0  0  0  0  0  0  0  0  0  0
   16.8130   43.0050  126.2820 C   0  0  0  0  0  2  0  0  0  0  0  0
   17.7220   43.4170  125.1750 C   0  0  0  0  0  2  0  0  0  0  0  0
   18.8650   41.5610  126.5090 N   0  0  0  0  0  0  0  0  0  0  0  0
   18.6890   41.0920  127.8170 C   0  0  0  0  0  0  0  0  0  0  0  0
   17.5740   40.8930  128.3130 O   0  0  0  0  0  0  0  0  0  0  0  0
   19.7960   41.8530  126.2130 H   0  0  0  0  0  0  0  0  0  0  0  0
   20.0110   40.7600  128.5250 C   0  0  0  0  0  0  0  0  0  0  0  0
   20.8960   41.7910  128.5490 F   0  0  0  0  0  0  0  0  0  0  0  0
   20.6460   39.7090  127.9270 F   0  0  0  0  0  0  0  0  0  0  0  0
   19.8050   40.3870  129.8140 F   0  0  0  0  0  0  0  0  0  0  0  0
  1  2  1  1  0  0  0
  1  3  1  0  0  0  0
  1 21  1  0  0  0  0
  3  8  1  0  0  0  0
  4  6  1  0  0  0  0
  4 10  1  0  0  0  0
  5  4  2  0  0  0  0
  7  3  2  0  0  0  0
  7  5  1  0  0  0  0
  8  9  1  0  0  0  0
  8  6  2  0  0  0  0
 10 14  1  0  0  0  0
 11 10  2  0  0  0  0
 11 12  1  0  0  0  0
 12 13  2  0  0  0  0
 13 15  1  0  0  0  0
 14 15  2  0  0  0  0
 16 12  1  0  0  0  0
 17 11  1  0  0  0  0
 18 17  2  0  0  0  0
 19 17  1  0  0  0  0
 20 19  1  0  0  0  0
 21 24  1  0  0  0  0
 21 22  1  0  0  0  0
 22 23  2  0  0  0  0
 22 25  1  0  0  0  0
 25 26  1  0  0  0  0
 25 28  1  0  0  0  0
 27 25  1  0  0  0  0
 27 26  1  0  0  0  0
 28 29  1  0  0  0  0
 29 30  2  0  0  0  0
 29 32  1  0  0  0  0
 31 28  1  0  0  0  0
 32 33  1  0  0  0  0
 32 35  1  0  0  0  0
 34 32  1  0  0  0  0
M  END
>  <minimizedAffinity>
-8.52635479

>  <CNNscore>
0.891125679

>  <CNNaffinity>
7.02361059

$$$$
