
 OpenBabel08012610423D

 28 31  0  0  1  0  0  0  0  0999 V2000
   18.7210   35.8120  125.0630 C   0  0  0  0  0  0  0  0  0  0  0  0
   19.8550   36.0630  125.8800 C   0  0  0  0  0  3  0  0  0  0  0  0
   20.1820   37.3700  126.3210 C   0  0  0  0  0  3  0  0  0  0  0  0
   19.3420   38.4030  125.9660 C   0  0  0  0  0  0  0  0  0  0  0  0
   18.2060   38.0890  125.2540 C   0  0  0  0  0  0  0  0  0  0  0  0
   17.9160   36.8670  124.7060 C   0  0  0  0  0  0  0  0  0  0  0  0
   16.7840   37.0590  123.7510 C   0  0  1  0  0  3  0  0  0  0  0  0
   15.5770   36.7390  124.2840 F   0  0  0  0  0  0  0  0  0  0  0  0
   16.8440   38.6100  123.4970 C   0  0  0  0  0  2  0  0  0  0  0  0
   17.3650   39.2320  124.8060 C   0  0  2  0  0  0  0  0  0  0  0  0
   18.4770   40.3030  124.8460 C   0  0  0  0  0  0  0  0  0  0  0  0
   19.1880   40.2680  123.6810 F   0  0  0  0  0  0  0  0  0  0  0  0
   17.9620   41.5510  124.9450 F   0  0  0  0  0  0  0  0  0  0  0  0
   19.3880   39.9010  126.0700 C   0  0  0  0  0  0  0  0  0  0  0  0
   20.6220   40.4550  125.9760 F   0  0  0  0  0  0  0  0  0  0  0  0
   18.8470   40.3480  127.2350 F   0  0  0  0  0  0  0  0  0  0  0  0
   18.4700   34.5730  124.5360 O   0  0  0  0  0  0  0  0  0  0  0  0
   19.2650   33.5440  124.9880 C   0  0  0  0  0  0  0  0  0  0  0  0
   19.2340   30.2960  128.5910 N   0  0  0  0  0  0  0  0  0  0  0  0
   19.4760   30.9350  127.6530 C   0  0  0  0  0  0  0  0  0  0  0  0
   19.7870   31.7200  126.4950 C   0  0  0  0  0  0  0  0  0  0  0  0
   20.9280   31.4300  125.7410 C   0  0  0  0  0  3  0  0  0  0  0  0
   18.9490   32.7750  126.1150 C   0  0  0  0  0  3  0  0  0  0  0  0
   21.2130   32.1900  124.6130 C   0  0  0  0  0  0  0  0  0  0  0  0
   20.3900   33.2390  124.2240 C   0  0  0  0  0  3  0  0  0  0  0  0
   22.3000   31.9030  123.8860 F   0  0  0  0  0  0  0  0  0  0  0  0
   16.3170   39.4390  125.7390 O   0  0  0  0  0  0  0  0  0  0  0  0
   15.9030   40.2990  125.5360 H   0  0  0  0  0  0  0  0  0  0  0  0
  1  2  1  0  0  0  0
  2  3  2  0  0  0  0
  4 14  1  0  0  0  0
  4  3  1  0  0  0  0
  5  4  2  0  0  0  0
  6  1  2  0  0  0  0
  6  5  1  0  0  0  0
  7  8  1  1  0  0  0
  7  6  1  0  0  0  0
  9  7  1  0  0  0  0
  9 10  1  0  0  0  0
 10 11  1  0  0  0  0
 10  5  1  0  0  0  0
 10 27  1  1  0  0  0
 11 13  1  0  0  0  0
 11 14  1  0  0  0  0
 12 11  1  0  0  0  0
 14 16  1  0  0  0  0
 15 14  1  0  0  0  0
 17 18  1  0  0  0  0
 17  1  1  0  0  0  0
 18 23  1  0  0  0  0
 20 19  3  0  0  0  0
 21 20  1  0  0  0  0
 22 21  1  0  0  0  0
 23 21  2  0  0  0  0
 24 22  2  0  0  0  0
 25 24  1  0  0  0  0
 25 18  2  0  0  0  0
 26 24  1  0  0  0  0
 28 27  1  0  0  0  0
M  END
>  <minimizedAffinity>
-9.47556114

>  <CNNscore>
0.493339419

>  <CNNaffinity>
5.99875593

$$$$
