
 OpenBabel08012607393D

 35 38  0  0  1  0  0  0  0  0999 V2000
   15.2740   37.3130  123.8000 C   0  0  0  0  0  0  0  0  0  0  0  0
   14.2130   37.9480  124.3500 C   0  0  0  0  0  0  0  0  0  0  0  0
   13.2120   38.4680  123.5870 N   0  0  0  0  0  0  0  0  0  0  0  0
   12.3860   39.5270  123.7550 C   0  0  0  0  0  0  0  0  0  0  0  0
   12.0900   40.1810  124.7280 O   0  0  0  0  0  0  0  0  0  0  0  0
   12.1860   39.6300  122.2000 C   0  0  2  0  0  3  0  0  0  0  0  0
   13.1030   38.3640  122.1510 C   0  0  1  0  0  3  0  0  0  0  0  0
   14.7380   38.5880  121.3900 S   0  0  0  0  0  0  0  0  0  0  0  0
   15.4950   37.2140  122.3090 C   0  0  0  0  0  2  0  0  0  0  0  0
   16.3660   36.6620  124.6210 C   0  0  0  0  0  2  0  0  0  0  0  0
   17.1520   35.8290  123.7640 O   0  0  0  0  0  0  0  0  0  0  0  0
   18.3720   35.5150  124.2780 C   0  0  0  0  0  0  0  0  0  0  0  0
   18.8180   34.3820  124.3990 O   0  0  0  0  0  0  0  0  0  0  0  0
   19.0910   36.7600  124.6940 C   0  0  0  0  0  1  0  0  0  0  0  0
   14.1260   38.1340  125.8270 C   0  0  0  0  0  0  0  0  0  0  0  0
   13.2780   37.6680  126.5670 O   0  0  0  0  0  0  0  0  0  0  0  0
   15.1080   38.9370  126.2740 O   0  0  0  0  0  0  0  0  0  0  0  0
   15.0110   38.9240  127.2480 H   0  0  0  0  0  0  0  0  0  0  0  0
   12.7430   40.8770  121.6070 N   0  0  0  0  0  0  0  0  0  0  0  0
   11.9640   41.9990  121.4410 C   0  0  0  0  0  0  0  0  0  0  0  0
   10.7390   41.9470  121.4190 O   0  0  0  0  0  0  0  0  0  0  0  0
   13.7520   40.9660  121.5370 H   0  0  0  0  0  0  0  0  0  0  0  0
   12.6960   43.2330  121.2700 C   0  0  0  0  0  0  0  0  0  0  0  0
   12.8580   44.0690  120.1240 C   0  0  0  0  0  0  0  0  0  0  0  0
   13.4780   43.8380  122.2310 C   0  0  0  0  0  0  0  0  0  0  0  0
   13.6430   45.1190  120.4040 N   0  0  0  0  0  0  0  0  0  0  0  0
   14.0260   44.9720  121.7210 O   0  0  0  0  0  0  0  0  0  0  0  0
   13.8170   43.5160  123.6300 C   0  0  0  0  0  1  0  0  0  0  0  0
   12.3500   43.8550  118.7730 C   0  0  0  0  0  0  0  0  0  0  0  0
   13.1570   43.1630  117.8560 C   0  0  0  0  0  3  0  0  0  0  0  0
   11.0740   44.2780  118.3700 C   0  0  0  0  0  0  0  0  0  0  0  0
   12.7000   42.8980  116.5640 C   0  0  0  0  0  3  0  0  0  0  0  0
   10.6240   44.0170  117.0710 C   0  0  0  0  0  3  0  0  0  0  0  0
   11.4360   43.3270  116.1700 C   0  0  0  0  0  3  0  0  0  0  0  0
    9.9720   45.0590  119.4530 Cl  0  0  0  0  0  0  0  0  0  0  0  0
  1  2  2  0  0  0  0
  1 10  1  0  0  0  0
  2 15  1  0  0  0  0
  3  4  1  0  0  0  0
  3  2  1  0  0  0  0
  4  5  2  0  0  0  0
  6 19  1  6  0  0  0
  6  4  1  0  0  0  0
  7  8  1  6  0  0  0
  7  6  1  0  0  0  0
  7  3  1  0  0  0  0
  8  9  1  0  0  0  0
  9  1  1  0  0  0  0
 11 12  1  0  0  0  0
 11 10  1  0  0  0  0
 12 13  2  0  0  0  0
 12 14  1  0  0  0  0
 15 17  1  0  0  0  0
 15 16  2  0  0  0  0
 17 18  1  0  0  0  0
 20 19  1  0  0  0  0
 21 20  2  0  0  0  0
 22 19  1  0  0  0  0
 23 20  1  0  0  0  0
 23 25  2  0  0  0  0
 24 26  2  0  0  0  0
 24 23  1  0  0  0  0
 25 28  1  0  0  0  0
 26 27  1  0  0  0  0
 27 25  1  0  0  0  0
 29 24  1  0  0  0  0
 30 29  2  0  0  0  0
 31 29  1  0  0  0  0
 31 35  1  0  0  0  0
 32 30  1  0  0  0  0
 33 31  2  0  0  0  0
 34 32  2  0  0  0  0
 34 33  1  0  0  0  0
M  END
>  <minimizedAffinity>
-7.85393143

>  <CNNscore>
0.56624198

>  <CNNaffinity>
5.41223383

$$$$
