
 OpenBabel08012616153D

 30 30  0  0  1  0  0  0  0  0999 V2000
   14.8870   38.5560  122.4380 C   0  0  1  0  0  3  0  0  0  0  0  0
   13.6420   38.2580  121.5780 C   0  0  1  0  0  3  0  0  0  0  0  0
   12.4390   38.5360  122.4660 C   0  0  0  0  0  2  0  0  0  0  0  0
   12.9700   39.5990  123.3870 C   0  0  0  0  0  0  0  0  0  0  0  0
   12.2510   40.2510  124.1380 O   0  0  0  0  0  0  0  0  0  0  0  0
   14.4740   39.7650  123.3140 C   0  0  2  0  0  3  0  0  0  0  0  0
   15.4070   37.4320  123.3200 C   0  0  0  0  0  3  0  0  0  0  0  0
   16.4430   37.4610  124.1770 C   0  0  0  0  0  3  0  0  0  0  0  0
   16.9470   36.3400  125.0550 C   0  0  2  0  0  3  0  0  0  0  0  0
   18.2520   35.6550  124.6090 C   0  0  0  0  0  2  0  0  0  0  0  0
   19.0430   34.8820  125.6960 C   0  0  1  0  0  3  0  0  0  0  0  0
   18.2800   34.8300  127.0210 C   0  0  0  0  0  1  0  0  0  0  0  0
   19.4830   33.4800  125.2310 C   0  0  0  0  0  2  0  0  0  0  0  0
   18.9850   32.3120  126.0930 C   0  0  0  0  0  2  0  0  0  0  0  0
   20.0660   31.4040  126.6830 C   0  0  0  0  0  2  0  0  0  0  0  0
   20.1040   31.4120  128.2030 C   0  0  0  0  0  1  0  0  0  0  0  0
   15.8850   35.3970  125.1120 O   0  0  0  0  0  0  0  0  0  0  0  0
   15.7700   35.0420  124.2130 H   0  0  0  0  0  0  0  0  0  0  0  0
   13.6250   39.1340  120.4510 O   0  0  0  0  0  0  0  0  0  0  0  0
   12.8740   38.8800  119.8850 H   0  0  0  0  0  0  0  0  0  0  0  0
   14.8230   41.1390  122.7290 C   0  0  0  0  0  2  0  0  0  0  0  0
   14.0800   41.4130  121.4170 C   0  0  0  0  0  2  0  0  0  0  0  0
   13.3140   42.7420  121.4180 C   0  0  0  0  0  2  0  0  0  0  0  0
   13.7270   43.6850  120.2820 C   0  0  0  0  0  2  0  0  0  0  0  0
   13.5500   43.1640  118.8780 C   0  0  0  0  0  3  0  0  0  0  0  0
   12.6020   43.5160  117.9950 C   0  0  0  0  0  3  0  0  0  0  0  0
   12.4900   42.9660  116.6350 C   0  0  0  0  0  0  0  0  0  0  0  0
   11.4510   42.9070  116.0020 O   0  0  0  0  0  0  0  0  0  0  0  0
   13.6500   42.5190  116.1300 O   0  0  0  0  0  0  0  0  0  0  0  0
   13.4050   42.1920  115.2400 H   0  0  0  0  0  0  0  0  0  0  0  0
  1  6  1  0  0  0  0
  1  7  1  1  0  0  0
  2 19  1  6  0  0  0
  2  1  1  0  0  0  0
  2  3  1  0  0  0  0
  3  4  1  0  0  0  0
  4  5  2  0  0  0  0
  6 21  1  6  0  0  0
  6  4  1  0  0  0  0
  7  8  2  0  0  0  0
  9  8  1  6  0  0  0
  9 17  1  0  0  0  0
 10  9  1  0  0  0  0
 10 11  1  0  0  0  0
 11 12  1  1  0  0  0
 13 11  1  0  0  0  0
 13 14  1  0  0  0  0
 14 15  1  0  0  0  0
 15 16  1  0  0  0  0
 18 17  1  0  0  0  0
 20 19  1  0  0  0  0
 22 23  1  0  0  0  0
 22 21  1  0  0  0  0
 24 23  1  0  0  0  0
 25 24  1  0  0  0  0
 26 25  2  0  0  0  0
 27 26  1  0  0  0  0
 28 27  2  0  0  0  0
 29 27  1  0  0  0  0
 30 29  1  0  0  0  0
M  END
>  <minimizedAffinity>
-6.73681784

>  <CNNscore>
0.693696976

>  <CNNaffinity>
6.16815376

$$$$
