
 OpenBabel08012605443D

 36 40  0  0  0  0  0  0  0  0999 V2000
   16.2490   40.2000  125.7970 N   0  0  0  0  0  0  0  0  0  0  0  0
   15.8540   40.2910  126.7300 H   0  0  0  0  0  0  0  0  0  0  0  0
   17.2980   39.1730  125.7500 C   0  0  0  0  0  3  0  0  0  0  0  0
   19.4930   37.7120  124.5320 N   0  0  0  0  0  0  0  0  0  0  0  0
   19.7520   38.6210  125.6650 C   0  0  0  0  0  2  0  0  0  0  0  0
   18.1700   37.0770  124.6780 C   0  0  0  0  0  2  0  0  0  0  0  0
   18.7130   39.7430  125.7190 C   0  0  0  0  0  2  0  0  0  0  0  0
   17.0500   38.1170  124.6750 C   0  0  0  0  0  2  0  0  0  0  0  0
   20.5340   36.6740  124.4140 C   0  0  0  0  0  2  0  0  0  0  0  0
   19.9890   35.2590  124.5950 C   0  0  0  0  0  1  0  0  0  0  0  0
   16.2080   41.4030  125.1020 C   0  0  0  0  0  0  0  0  0  0  0  0
   16.9440   42.5440  125.4480 C   0  0  0  0  0  3  0  0  0  0  0  0
   15.4560   41.4390  123.9050 C   0  0  0  0  0  3  0  0  0  0  0  0
   16.9000   43.7110  124.6820 C   0  0  0  0  0  3  0  0  0  0  0  0
   15.3900   42.5890  123.1280 C   0  0  0  0  0  0  0  0  0  0  0  0
   16.1190   43.7010  123.5460 C   0  0  0  0  0  0  0  0  0  0  0  0
   14.6820   42.9900  121.8740 C   0  0  0  0  0  0  0  0  0  0  0  0
   15.9590   44.7580  122.6690 N   0  0  0  0  0  0  0  0  0  0  0  0
   13.7840   42.2890  121.1300 C   0  0  0  0  0  0  0  0  0  0  0  0
   15.1400   44.4200  121.6160 C   0  0  0  0  0  0  0  0  0  0  0  0
   14.9130   45.1370  120.6590 O   0  0  0  0  0  0  0  0  0  0  0  0
   16.4130   45.6570  122.7410 H   0  0  0  0  0  0  0  0  0  0  0  0
   13.4630   40.8860  121.5100 C   0  0  0  0  0  0  0  0  0  0  0  0
   12.4270   40.6270  122.4220 C   0  0  0  0  0  3  0  0  0  0  0  0
   14.2170   39.8180  121.0040 C   0  0  0  0  0  3  0  0  0  0  0  0
   12.1280   39.3160  122.7970 C   0  0  0  0  0  3  0  0  0  0  0  0
   13.9090   38.5190  121.3900 C   0  0  0  0  0  0  0  0  0  0  0  0
   12.8710   38.2580  122.2760 C   0  0  0  0  0  3  0  0  0  0  0  0
   14.6210   37.4990  120.8970 F   0  0  0  0  0  0  0  0  0  0  0  0
   13.0440   42.8190  120.0120 C   0  0  0  0  0  0  0  0  0  0  0  0
   13.2700   42.6120  118.7210 N   0  0  0  0  0  0  0  0  0  0  0  0
   12.0290   43.7380  120.1510 N   0  0  0  0  0  0  0  0  0  0  0  0
   12.3680   43.3790  118.0270 C   0  0  0  0  0  0  0  0  0  0  0  0
   11.5870   44.0920  118.9050 C   0  0  0  0  0  3  0  0  0  0  0  0
   11.5930   43.9980  121.0250 H   0  0  0  0  0  0  0  0  0  0  0  0
   12.3380   43.3520  116.5490 C   0  0  0  0  0  1  0  0  0  0  0  0
  1  2  1  0  0  0  0
  3  1  1  0  0  0  0
  4  6  1  0  0  0  0
  4  5  1  0  0  0  0
  5  7  1  0  0  0  0
  7  3  1  0  0  0  0
  8  6  1  0  0  0  0
  8  3  1  0  0  0  0
  9  4  1  0  0  0  0
  9 10  1  0  0  0  0
 11 12  1  0  0  0  0
 11  1  1  0  0  0  0
 13 11  2  0  0  0  0
 14 12  2  0  0  0  0
 15 16  2  0  0  0  0
 15 13  1  0  0  0  0
 16 14  1  0  0  0  0
 17 15  1  0  0  0  0
 18 22  1  0  0  0  0
 18 16  1  0  0  0  0
 19 23  1  0  0  0  0
 19 17  2  0  0  0  0
 20 17  1  0  0  0  0
 20 18  1  0  0  0  0
 21 20  2  0  0  0  0
 23 24  1  0  0  0  0
 24 26  2  0  0  0  0
 25 27  1  0  0  0  0
 25 23  2  0  0  0  0
 27 28  2  0  0  0  0
 28 26  1  0  0  0  0
 29 27  1  0  0  0  0
 30 32  1  0  0  0  0
 30 19  1  0  0  0  0
 31 30  2  0  0  0  0
 32 35  1  0  0  0  0
 33 31  1  0  0  0  0
 33 34  2  0  0  0  0
 34 32  1  0  0  0  0
 36 33  1  0  0  0  0
M  END
>  <minimizedAffinity>
-8.43796158

>  <CNNscore>
0.110674873

>  <CNNaffinity>
5.70450068

$$$$
