
 OpenBabel08012614283D

 39 42  0  0  1  0  0  0  0  0999 V2000
   17.2490   38.2490  124.5290 C   0  0  1  0  0  3  0  0  0  0  0  0
   17.7510   39.6850  124.6860 C   0  0  0  0  0  2  0  0  0  0  0  0
   16.6390   40.5810  124.7030 O   0  0  0  0  0  0  0  0  0  0  0  0
   15.8890   40.4800  123.4940 C   0  0  1  0  0  3  0  0  0  0  0  0
   15.3420   39.1720  123.3330 O   0  0  0  0  0  0  0  0  0  0  0  0
   16.3660   38.1790  123.2820 C   0  0  0  0  0  2  0  0  0  0  0  0
   18.6440   37.0680  124.4000 S   0  0  0  0  0  0  0  0  0  0  0  0
   18.5510   36.2810  126.0770 C   0  0  2  0  0  3  0  0  0  0  0  0
   20.0050   36.1100  126.5500 C   0  0  0  0  0  1  0  0  0  0  0  0
   17.7110   34.9360  126.1590 C   0  0  2  0  0  0  0  0  0  0  0  0
   16.8910   34.9300  124.9640 O   0  0  0  0  0  0  0  0  0  0  0  0
   16.8950   34.0400  124.5610 H   0  0  0  0  0  0  0  0  0  0  0  0
   16.7000   34.9400  127.3420 C   0  0  0  0  0  2  0  0  0  0  0  0
   15.4300   35.5520  126.9950 N   0  0  0  0  0  0  0  0  0  0  0  0
   15.0230   35.9990  125.7750 C   0  0  0  0  0  3  0  0  0  0  0  0
   14.4680   35.7320  127.9230 N   0  0  0  0  0  0  0  0  0  0  0  0
   13.7850   36.4280  125.8580 N   0  0  0  0  0  0  0  0  0  0  0  0
   13.4860   36.2510  127.1800 C   0  0  0  0  0  3  0  0  0  0  0  0
   18.6700   33.7240  126.2190 C   0  0  0  0  0  0  0  0  0  0  0  0
   18.8230   32.9770  127.4060 C   0  0  0  0  0  3  0  0  0  0  0  0
   19.4230   33.3000  125.1080 C   0  0  0  0  0  0  0  0  0  0  0  0
   19.6920   31.8810  127.4690 C   0  0  0  0  0  3  0  0  0  0  0  0
   20.2820   32.2040  125.1560 C   0  0  0  0  0  3  0  0  0  0  0  0
   20.4150   31.5070  126.3460 C   0  0  0  0  0  0  0  0  0  0  0  0
   19.3060   33.9410  123.9350 F   0  0  0  0  0  0  0  0  0  0  0  0
   21.2400   30.4520  126.4060 F   0  0  0  0  0  0  0  0  0  0  0  0
   14.7220   41.4210  123.5080 C   0  0  0  0  0  3  0  0  0  0  0  0
   13.4640   41.1390  123.8950 C   0  0  0  0  0  3  0  0  0  0  0  0
   12.3910   42.1110  123.8380 C   0  0  0  0  0  3  0  0  0  0  0  0
   11.1760   41.8800  124.3590 C   0  0  0  0  0  3  0  0  0  0  0  0
   10.0290   42.7990  124.2720 C   0  0  0  0  0  0  0  0  0  0  0  0
   10.1590   44.1910  124.3910 C   0  0  0  0  0  3  0  0  0  0  0  0
    8.7420   42.2710  124.0930 C   0  0  0  0  0  0  0  0  0  0  0  0
    9.0370   45.0220  124.2880 C   0  0  0  0  0  3  0  0  0  0  0  0
    7.6210   43.0890  123.9860 C   0  0  0  0  0  3  0  0  0  0  0  0
    7.7670   44.4740  124.0790 C   0  0  0  0  0  0  0  0  0  0  0  0
    6.6210   45.3290  123.9780 C   0  0  0  0  0  0  0  0  0  0  0  0
    5.6940   46.0260  123.9080 N   0  0  0  0  0  0  0  0  0  0  0  0
    8.5630   40.9440  124.0120 F   0  0  0  0  0  0  0  0  0  0  0  0
  1  7  1  6  0  0  0
  1  2  1  0  0  0  0
  2  3  1  0  0  0  0
  4 27  1  1  0  0  0
  4  3  1  0  0  0  0
  5  4  1  0  0  0  0
  6  5  1  0  0  0  0
  6  1  1  0  0  0  0
  7  8  1  0  0  0  0
  8 10  1  0  0  0  0
  8  9  1  6  0  0  0
 10 19  1  0  0  0  0
 10 13  1  1  0  0  0
 11 10  1  0  0  0  0
 12 11  1  0  0  0  0
 14 13  1  0  0  0  0
 14 16  1  0  0  0  0
 15 17  2  0  0  0  0
 15 14  1  0  0  0  0
 17 18  1  0  0  0  0
 18 16  2  0  0  0  0
 19 20  1  0  0  0  0
 20 22  2  0  0  0  0
 21 23  1  0  0  0  0
 21 19  2  0  0  0  0
 23 24  2  0  0  0  0
 24 26  1  0  0  0  0
 24 22  1  0  0  0  0
 25 21  1  0  0  0  0
 27 28  2  0  0  0  0
 29 28  1  0  0  0  0
 29 30  2  0  0  0  0
 31 30  1  0  0  0  0
 31 32  1  0  0  0  0
 33 31  2  0  0  0  0
 34 32  2  0  0  0  0
 35 36  2  0  0  0  0
 35 33  1  0  0  0  0
 36 34  1  0  0  0  0
 37 36  1  0  0  0  0
 38 37  3  0  0  0  0
 39 33  1  0  0  0  0
M  END
>  <minimizedAffinity>
-9.21649361

>  <CNNscore>
0.244131356

>  <CNNaffinity>
6.70627451

$$$$
