VIBLPWPPWBZROD-HOTGVXAUSA-N
     RDKit          3D

 27 28  0  0  0  0  0  0  0  0999 V2000
   -6.8650    6.4110   19.0100 C   0  0  0  0  0  0  0  0  0  0  0  0
   -6.1930    7.7760   18.7260 C   0  0  0  0  0  0  0  0  0  0  0  0
   -4.6710    7.5340   18.6720 C   0  0  0  0  0  0  0  0  0  0  0  0
   -6.6780    8.2730   17.3500 C   0  0  0  0  0  0  0  0  0  0  0  0
   -6.6330    8.7790   19.8370 C   0  0  1  0  0  0  0  0  0  0  0  0
   -7.2890    8.1020   20.9170 O   0  0  0  0  0  0  0  0  0  0  0  0
   -5.4910    9.6370   20.4450 C   0  0  0  0  0  0  0  0  0  0  0  0
   -4.9310    9.2660   21.4810 O   0  0  0  0  0  0  0  0  0  0  0  0
   -5.1720   10.8530   19.8550 N   0  0  0  0  0  0  0  0  0  0  0  0
   -6.2510   11.6320   19.2440 C   0  0  0  0  0  0  0  0  0  0  0  0
   -5.7710   12.4500   18.0460 C   0  0  0  0  0  0  0  0  0  0  0  0
   -4.6690   13.2860   18.4130 O   0  0  0  0  0  0  0  0  0  0  0  0
   -3.5560   12.4890   18.8340 C   0  0  0  0  0  0  0  0  0  0  0  0
   -3.8840   11.5550   20.0130 C   0  0  1  0  0  0  0  0  0  0  0  0
   -3.8400   12.3320   21.3470 C   0  0  0  0  0  0  0  0  0  0  0  0
   -4.3830   13.4220   21.5160 O   0  0  0  0  0  0  0  0  0  0  0  0
   -3.1640   11.6780   22.3490 N   0  0  0  0  0  0  0  0  0  0  0  0
   -3.0540   12.1960   23.6900 C   0  0  0  0  0  0  0  0  0  0  0  0
   -2.2000   11.2790   24.5410 C   0  0  0  0  0  0  0  0  0  0  0  0
   -2.7890   10.6620   25.6620 C   0  0  0  0  0  0  0  0  0  0  0  0
   -2.0510    9.7970   26.4690 C   0  0  0  0  0  0  0  0  0  0  0  0
   -2.7900    9.0600   27.8380 Cl  0  0  0  0  0  0  0  0  0  0  0  0
   -0.7190    9.5240   26.1740 C   0  0  0  0  0  0  0  0  0  0  0  0
   -0.1230   10.1170   25.0590 C   0  0  0  0  0  0  0  0  0  0  0  0
   -0.8440   11.0000   24.2320 C   0  0  0  0  0  0  0  0  0  0  0  0
   -0.1530   11.5800   23.0190 C   0  0  0  0  0  0  0  0  0  0  0  0
   -0.0680   10.5870   21.9400 N   0  0  0  0  0  0  0  0  0  0  0  0
  1  2  1  0
  2  3  1  0
  2  4  1  0
  2  5  1  0
  5  6  1  1
  5  7  1  0
  7  8  2  0
  7  9  1  0
  9 10  1  0
 10 11  1  0
 11 12  1  0
 12 13  1  0
 13 14  1  0
 14 15  1  1
 15 16  2  0
 15 17  1  0
 17 18  1  0
 18 19  1  0
 19 20  2  0
 20 21  1  0
 21 22  1  0
 21 23  2  0
 23 24  1  0
 24 25  2  0
 25 26  1  0
 26 27  1  0
 14  9  1  0
 25 19  1  0
M  END
$$$$
