IGNSBDLQAZHCTR-UHFFFAOYSA-N
     RDKit          3D

 39 43  0  0  0  0  0  0  0  0999 V2000
   -3.6370    8.9550   28.5870 N   0  0  0  0  0  0  0  0  0  0  0  0
   -2.4980    8.4520   28.2320 C   0  0  0  0  0  0  0  0  0  0  0  0
   -2.0550    7.3640   28.9040 N   0  0  0  0  0  0  0  0  0  0  0  0
   -1.6840    9.0380   27.1370 C   0  0  0  0  0  0  0  0  0  0  0  0
   -0.3180    8.7470   27.0540 C   0  0  0  0  0  0  0  0  0  0  0  0
    0.4490    9.3120   26.0360 C   0  0  0  0  0  0  0  0  0  0  0  0
   -0.1460   10.1680   25.1080 C   0  0  0  0  0  0  0  0  0  0  0  0
   -1.5140   10.4660   25.1910 C   0  0  0  0  0  0  0  0  0  0  0  0
   -2.1070   11.3890   24.1970 C   0  0  0  0  0  0  0  0  0  0  0  0
   -1.4620   12.3900   23.6850 N   0  0  0  0  0  0  0  0  0  0  0  0
   -2.3140   13.0340   22.7640 O   0  0  0  0  0  0  0  0  0  0  0  0
   -3.4640   12.1990   22.5420 C   0  0  2  0  0  0  0  0  0  0  0  0
   -3.3480   11.5350   21.1660 C   0  0  0  0  0  0  0  0  0  0  0  0
   -2.2750   12.0570   20.3530 N   0  0  0  0  0  0  0  0  0  0  0  0
   -2.2760   13.1240   19.5140 C   0  0  0  0  0  0  0  0  0  0  0  0
   -1.0780   13.2330   18.9860 N   0  0  0  0  0  0  0  0  0  0  0  0
   -0.3350   12.2070   19.5210 N   0  0  0  0  0  0  0  0  0  0  0  0
   -1.0620   11.4810   20.3590 N   0  0  0  0  0  0  0  0  0  0  0  0
   -4.6880   13.1260   22.5600 C   0  0  0  0  0  0  0  0  0  0  0  0
   -5.5810   13.0000   21.7270 O   0  0  0  0  0  0  0  0  0  0  0  0
   -4.6690   14.0200   23.6050 N   0  0  0  0  0  0  0  0  0  0  0  0
   -5.6790   14.8960   23.9610 C   0  0  0  0  0  0  0  0  0  0  0  0
   -6.1430   14.7190   25.2060 N   0  0  0  0  0  0  0  0  0  0  0  0
   -7.1400   15.5400   25.6060 C   0  0  0  0  0  0  0  0  0  0  0  0
   -7.7020   16.5220   24.8130 C   0  0  0  0  0  0  0  0  0  0  0  0
   -8.8050   17.3790   25.2470 C   0  0  0  0  0  0  0  0  0  0  0  0
  -10.1180   16.8880   25.1010 C   0  0  0  0  0  0  0  0  0  0  0  0
  -11.2290   17.6430   25.4870 C   0  0  0  0  0  0  0  0  0  0  0  0
  -11.0540   18.9110   26.0290 C   0  0  0  0  0  0  0  0  0  0  0  0
   -9.7680   19.4260   26.1840 C   0  0  0  0  0  0  0  0  0  0  0  0
   -8.6500   18.6700   25.7940 C   0  0  0  0  0  0  0  0  0  0  0  0
   -7.0500   19.4110   26.0130 S   0  0  0  0  0  0  0  0  0  0  0  0
   -7.4020   20.8700   26.7630 N   0  0  0  0  0  0  0  0  0  0  0  0
   -6.3100   18.6580   27.0010 O   0  0  0  0  0  0  0  0  0  0  0  0
   -6.5000   19.7180   24.7140 O   0  0  0  0  0  0  0  0  0  0  0  0
   -7.1510   16.5980   23.5490 C   0  0  0  0  0  0  0  0  0  0  0  0
   -6.1480   15.8100   23.1090 N   0  0  0  0  0  0  0  0  0  0  0  0
   -3.5140   11.2480   23.7270 C   0  0  0  0  0  0  0  0  0  0  0  0
   -2.2850    9.8970   26.2100 C   0  0  0  0  0  0  0  0  0  0  0  0
  1  2  2  0
  2  3  1  0
  2  4  1  0
  4  5  2  0
  5  6  1  0
  6  7  2  0
  7  8  1  0
  8  9  1  0
  9 10  2  0
 10 11  1  0
 11 12  1  0
 12 13  1  6
 13 14  1  0
 14 15  1  0
 15 16  2  0
 16 17  1  0
 17 18  2  0
 12 19  1  0
 19 20  2  0
 19 21  1  0
 21 22  1  0
 22 23  2  0
 23 24  1  0
 24 25  2  0
 25 26  1  0
 26 27  2  0
 27 28  1  0
 28 29  2  0
 29 30  1  0
 30 31  2  0
 31 32  1  0
 32 33  1  0
 32 34  2  0
 32 35  2  0
 25 36  1  0
 36 37  2  0
 12 38  1  0
  8 39  2  0
 39  4  1  0
 38  9  1  0
 18 14  1  0
 37 22  1  0
 31 26  1  0
M  END
$$$$
