FEFPMRFHQVSSQC-UHFFFAOYSA-N
     RDKit          3D

 42 45  0  0  0  0  0  0  0  0999 V2000
   -0.0490    8.9920   26.8480 C   0  0  0  0  0  0  0  0  0  0  0  0
   -1.4670    9.3000   26.3760 C   0  0  0  0  0  0  0  0  0  0  0  0
   -2.4270    9.2870   27.5620 C   0  0  0  0  0  0  0  0  0  0  0  0
   -1.4360   10.6090   25.7980 O   0  0  0  0  0  0  0  0  0  0  0  0
   -2.1260   10.8380   24.6420 C   0  0  0  0  0  0  0  0  0  0  0  0
   -3.3220   11.5390   24.5150 C   0  0  0  0  0  0  0  0  0  0  0  0
   -3.9210   11.6930   23.2560 C   0  0  0  0  0  0  0  0  0  0  0  0
   -3.3350   11.1570   22.0990 C   0  0  0  0  0  0  0  0  0  0  0  0
   -3.9730   11.3010   20.7800 C   0  0  0  0  0  0  0  0  0  0  0  0
   -3.7920   10.3270   19.7810 C   0  0  0  0  0  0  0  0  0  0  0  0
   -4.3560   10.4770   18.5100 C   0  0  0  0  0  0  0  0  0  0  0  0
   -5.1220   11.6020   18.2130 C   0  0  0  0  0  0  0  0  0  0  0  0
   -5.3290   12.5650   19.2000 C   0  0  0  0  0  0  0  0  0  0  0  0
   -6.2170   14.0520   18.8190 S   0  0  0  0  0  0  0  0  0  0  0  0
   -5.7860   15.0500   19.7730 O   0  0  0  0  0  0  0  0  0  0  0  0
   -6.1250   14.2820   17.3920 O   0  0  0  0  0  0  0  0  0  0  0  0
   -7.8210   13.6770   19.1950 N   0  0  0  0  0  0  0  0  0  0  0  0
   -8.0560   12.8450   20.4250 C   0  0  2  0  0  0  0  0  0  0  0  0
   -8.9050   11.6310   20.0020 C   0  0  0  0  0  0  0  0  0  0  0  0
   -8.1250   10.3370   19.9530 C   0  0  0  0  0  0  0  0  0  0  0  0
   -7.5080    9.8430   21.1110 C   0  0  0  0  0  0  0  0  0  0  0  0
   -6.8130    8.6330   21.0830 C   0  0  0  0  0  0  0  0  0  0  0  0
   -6.7310    7.9000   19.9000 C   0  0  0  0  0  0  0  0  0  0  0  0
   -7.3400    8.3840   18.7380 C   0  0  0  0  0  0  0  0  0  0  0  0
   -7.2760    7.5890   17.4830 C   0  0  0  0  0  0  0  0  0  0  0  0
   -6.9060    6.3490   17.4650 N   0  0  0  0  0  0  0  0  0  0  0  0
   -7.6010    8.1550   16.2950 N   0  0  0  0  0  0  0  0  0  0  0  0
   -8.0330    9.6020   18.7630 C   0  0  0  0  0  0  0  0  0  0  0  0
   -8.8520   13.7060   21.4190 C   0  0  0  0  0  0  0  0  0  0  0  0
   -9.8360   14.3240   20.9850 O   0  0  0  0  0  0  0  0  0  0  0  0
   -8.4780   13.7730   22.7510 N   0  0  0  0  0  0  0  0  0  0  0  0
   -9.3270   14.5130   23.6850 C   0  0  0  0  0  0  0  0  0  0  0  0
   -8.5150   15.5220   24.4960 C   0  0  0  0  0  0  0  0  0  0  0  0
   -7.3250   14.8460   25.1930 C   0  0  0  0  0  0  0  0  0  0  0  0
   -6.4890   15.8260   26.0410 C   0  0  0  0  0  0  0  0  0  0  0  0
   -6.8590   17.3040   25.8970 C   0  0  0  0  0  0  0  0  0  0  0  0
   -6.4640   18.0360   27.0950 N   0  0  0  0  0  0  0  0  0  0  0  0
   -6.4780   14.0810   24.1620 C   0  0  0  0  0  0  0  0  0  0  0  0
   -7.3380   13.0940   23.3730 C   0  0  0  0  0  0  0  0  0  0  0  0
   -4.7530   12.4250   20.4700 C   0  0  0  0  0  0  0  0  0  0  0  0
   -2.1200   10.4700   22.2410 C   0  0  0  0  0  0  0  0  0  0  0  0
   -1.5240   10.3160   23.4960 C   0  0  0  0  0  0  0  0  0  0  0  0
  1  2  1  0
  2  3  1  0
  2  4  1  0
  4  5  1  0
  5  6  2  0
  6  7  1  0
  7  8  2  0
  8  9  1  0
  9 10  2  0
 10 11  1  0
 11 12  2  0
 12 13  1  0
 13 14  1  0
 14 15  2  0
 14 16  2  0
 14 17  1  0
 17 18  1  0
 18 19  1  6
 19 20  1  0
 20 21  2  0
 21 22  1  0
 22 23  2  0
 23 24  1  0
 24 25  1  0
 25 26  2  0
 25 27  1  0
 24 28  2  0
 18 29  1  0
 29 30  2  0
 29 31  1  0
 31 32  1  0
 32 33  1  0
 33 34  1  0
 34 35  1  0
 35 36  1  0
 36 37  1  0
 34 38  1  0
 38 39  1  0
 13 40  2  0
  8 41  1  0
 41 42  2  0
 42  5  1  0
 40  9  1  0
 28 20  1  0
 39 31  1  0
M  END
$$$$
