ABDIOQXDBJMGHB-QPJJXVBHSA-N_3POZ_m9
     RDKit          3D

 29 31  0  0  0  0  0  0  0  0999 V2000
   14.9740   29.1600    6.3410 C   0  0  0  0  0  0  0  0  0  0  0  0
   15.8160   30.3440    6.5470 N   0  0  0  0  0  0  0  0  0  0  0  0
   17.0370   29.9520    7.2560 C   0  0  0  0  0  0  0  0  0  0  0  0
   15.0960   31.3750    7.3120 C   0  0  0  0  0  0  0  0  0  0  0  0
   15.8660   31.9570    8.4650 C   0  0  0  0  0  0  0  0  0  0  0  0
   16.1510   33.2560    8.6620 C   0  0  0  0  0  0  0  0  0  0  0  0
   16.9350   33.6930    9.8500 C   0  0  0  0  0  0  0  0  0  0  0  0
   16.8670   34.8430   10.2660 O   0  0  0  0  0  0  0  0  0  0  0  0
   17.7060   32.6680   10.3600 N   0  0  0  0  0  0  0  0  0  0  0  0
   18.5540   32.7140   11.4870 C   0  0  0  0  0  0  0  0  0  0  0  0
   19.6430   31.8480   11.5070 C   0  0  0  0  0  0  0  0  0  0  0  0
   20.5240   31.8490   12.5930 C   0  0  0  0  0  0  0  0  0  0  0  0
   20.3520   32.6980   13.6750 C   0  0  0  0  0  0  0  0  0  0  0  0
   21.2410   32.6290   14.6750 N   0  0  0  0  0  0  0  0  0  0  0  0
   21.0730   33.4570   15.7310 C   0  0  0  0  0  0  0  0  0  0  0  0
   20.0400   34.3690   15.8500 C   0  0  0  0  0  0  0  0  0  0  0  0
   20.0310   35.2320   16.9910 C   0  0  0  0  0  0  0  0  0  0  0  0
   20.0790   35.9120   17.9310 N   0  0  0  0  0  0  0  0  0  0  0  0
   19.1010   34.4440   14.8090 C   0  0  0  0  0  0  0  0  0  0  0  0
   17.9960   35.3290   14.8650 N   0  0  0  0  0  0  0  0  0  0  0  0
   16.7120   35.1480   15.4120 C   0  0  0  0  0  0  0  0  0  0  0  0
   15.7410   34.4780   14.6530 C   0  0  0  0  0  0  0  0  0  0  0  0
   14.4400   34.3090   15.1360 C   0  0  0  0  0  0  0  0  0  0  0  0
   14.0890   34.8150   16.3840 C   0  0  0  0  0  0  0  0  0  0  0  0
   15.0440   35.4860   17.1420 C   0  0  0  0  0  0  0  0  0  0  0  0
   14.5760   36.1730   18.8410 Br  0  0  0  0  0  0  0  0  0  0  0  0
   16.3440   35.6570   16.6630 C   0  0  0  0  0  0  0  0  0  0  0  0
   19.2550   33.5860   13.6810 C   0  0  0  0  0  0  0  0  0  0  0  0
   18.3620   33.5650   12.5770 C   0  0  0  0  0  0  0  0  0  0  0  0
  1  2  1  0
  2  3  1  0
  2  4  1  0
  4  5  1  0
  5  6  2  0
  6  7  1  0
  7  8  2  0
  7  9  1  0
  9 10  1  0
 10 11  2  0
 11 12  1  0
 12 13  2  0
 13 14  1  0
 14 15  2  0
 15 16  1  0
 16 17  1  0
 17 18  3  0
 16 19  2  0
 19 20  1  0
 20 21  1  0
 21 22  2  0
 22 23  1  0
 23 24  2  0
 24 25  1  0
 25 26  1  0
 25 27  2  0
 19 28  1  0
 28 29  2  0
 29 10  1  0
 28 13  1  0
 27 21  1  0
M  END
$$$$
