ACCFLVVUVBJNGT-AWEZNQCLSA-N_4JT6_m8
     RDKit          3D

 30 33  0  0  0  0  0  0  0  0999 V2000
   46.6600   -2.8670  -46.8720 C   0  0  0  0  0  0  0  0  0  0  0  0
   46.4770   -1.4950  -46.5440 O   0  0  0  0  0  0  0  0  0  0  0  0
   47.7150   -0.7940  -46.3640 C   0  0  1  0  0  0  0  0  0  0  0  0
   47.8680   -0.4480  -44.8850 C   0  0  0  0  0  0  0  0  0  0  0  0
   48.8780   -1.6980  -46.8170 C   0  0  0  0  0  0  0  0  0  0  0  0
   49.7600   -1.0410  -47.7520 N   0  0  0  0  0  0  0  0  0  0  0  0
   49.4270   -0.9390  -49.1250 C   0  0  0  0  0  0  0  0  0  0  0  0
   48.4170   -1.3640  -49.6630 O   0  0  0  0  0  0  0  0  0  0  0  0
   50.4870   -0.2640  -49.7410 N   0  0  0  0  0  0  0  0  0  0  0  0
   50.5780    0.0630  -51.1340 C   0  0  0  0  0  0  0  0  0  0  0  0
   51.4560    0.0230  -48.7760 C   0  0  0  0  0  0  0  0  0  0  0  0
   52.6610    0.6590  -48.9030 C   0  0  0  0  0  0  0  0  0  0  0  0
   53.4740    0.8360  -47.8430 N   0  0  0  0  0  0  0  0  0  0  0  0
   53.0870    0.3650  -46.6380 C   0  0  0  0  0  0  0  0  0  0  0  0
   53.9580    0.5560  -45.5790 C   0  0  0  0  0  0  0  0  0  0  0  0
   53.6760    0.0980  -44.2880 C   0  0  0  0  0  0  0  0  0  0  0  0
   52.4870   -0.5790  -44.0170 C   0  0  0  0  0  0  0  0  0  0  0  0
   52.1820   -1.0890  -42.6700 C   0  0  0  0  0  0  0  0  0  0  0  0
   51.5930   -0.2870  -41.6920 C   0  0  0  0  0  0  0  0  0  0  0  0
   51.2910   -0.6940  -40.4360 N   0  0  0  0  0  0  0  0  0  0  0  0
   51.5860   -1.9760  -40.1290 C   0  0  0  0  0  0  0  0  0  0  0  0
   52.1670   -2.8890  -41.0080 C   0  0  0  0  0  0  0  0  0  0  0  0
   52.4730   -4.3150  -40.5780 C   0  0  0  0  0  0  0  0  0  0  0  0
   51.5480   -5.3210  -41.2750 C   0  0  0  0  0  0  0  0  0  0  0  0
   52.3750   -4.4540  -39.0550 C   0  0  0  0  0  0  0  0  0  0  0  0
   53.8150   -4.6540  -40.9510 O   0  0  0  0  0  0  0  0  0  0  0  0
   52.4650   -2.4110  -42.2940 C   0  0  0  0  0  0  0  0  0  0  0  0
   51.5910   -0.7630  -45.0850 C   0  0  0  0  0  0  0  0  0  0  0  0
   51.8610   -0.3090  -46.4030 C   0  0  0  0  0  0  0  0  0  0  0  0
   51.0370   -0.4600  -47.5350 C   0  0  0  0  0  0  0  0  0  0  0  0
  1  2  1  0
  2  3  1  0
  3  4  1  1
  3  5  1  0
  5  6  1  0
  6  7  1  0
  7  8  2  0
  7  9  1  0
  9 10  1  0
  9 11  1  0
 11 12  2  0
 12 13  1  0
 13 14  2  0
 14 15  1  0
 15 16  2  0
 16 17  1  0
 17 18  1  0
 18 19  2  0
 19 20  1  0
 20 21  2  0
 21 22  1  0
 22 23  1  0
 23 24  1  0
 23 25  1  0
 23 26  1  0
 22 27  2  0
 17 28  2  0
 28 29  1  0
 29 30  2  0
 30  6  1  0
 30 11  1  0
 29 14  1  0
 27 18  1  0
M  END
$$$$
