ADGGYDAFIHSYFI-UHFFFAOYSA-N_4JT6_m5
     RDKit          3D

 29 32  0  0  0  0  0  0  0  0999 V2000
   56.8130    1.7570  -42.8690 N   0  0  0  0  0  0  0  0  0  0  0  0
   55.7010    1.3210  -43.5520 C   0  0  0  0  0  0  0  0  0  0  0  0
   54.6990    0.6140  -42.9100 C   0  0  0  0  0  0  0  0  0  0  0  0
   53.5940    0.1340  -43.6400 C   0  0  0  0  0  0  0  0  0  0  0  0
   52.5410   -0.6610  -42.9130 C   0  0  0  0  0  0  0  0  0  0  0  0
   52.3510   -1.9130  -43.4140 F   0  0  0  0  0  0  0  0  0  0  0  0
   52.8560   -0.8590  -41.5970 F   0  0  0  0  0  0  0  0  0  0  0  0
   51.3240   -0.0520  -42.8920 F   0  0  0  0  0  0  0  0  0  0  0  0
   53.5220    0.3990  -45.0210 C   0  0  0  0  0  0  0  0  0  0  0  0
   52.4100   -0.0010  -45.8900 C   0  0  0  0  0  0  0  0  0  0  0  0
   52.5610    0.1810  -47.1960 N   0  0  0  0  0  0  0  0  0  0  0  0
   51.5320   -0.1780  -47.9490 C   0  0  0  0  0  0  0  0  0  0  0  0
   51.6260   -0.0220  -49.3070 N   0  0  0  0  0  0  0  0  0  0  0  0
   50.5870   -0.5300  -50.1960 C   0  0  0  0  0  0  0  0  0  0  0  0
   50.5810    0.2890  -51.4990 C   0  0  0  0  0  0  0  0  0  0  0  0
   51.8310    0.2910  -52.2000 O   0  0  0  0  0  0  0  0  0  0  0  0
   52.9720    0.1230  -51.3470 C   0  0  0  0  0  0  0  0  0  0  0  0
   52.7740    0.6450  -49.9150 C   0  0  0  0  0  0  0  0  0  0  0  0
   50.4110   -0.6810  -47.4410 N   0  0  0  0  0  0  0  0  0  0  0  0
   50.3320   -0.8250  -46.1200 C   0  0  0  0  0  0  0  0  0  0  0  0
   49.1660   -1.3320  -45.5750 N   0  0  0  0  0  0  0  0  0  0  0  0
   48.0820   -1.6840  -46.4950 C   0  0  0  0  0  0  0  0  0  0  0  0
   46.7710   -1.9060  -45.7270 C   0  0  0  0  0  0  0  0  0  0  0  0
   46.9350   -2.8430  -44.6530 O   0  0  0  0  0  0  0  0  0  0  0  0
   47.8930   -2.3370  -43.7120 C   0  0  0  0  0  0  0  0  0  0  0  0
   49.2740   -2.1350  -44.3540 C   0  0  0  0  0  0  0  0  0  0  0  0
   51.3220   -0.4840  -45.3060 N   0  0  0  0  0  0  0  0  0  0  0  0
   54.6020    1.0970  -45.5630 C   0  0  0  0  0  0  0  0  0  0  0  0
   55.6750    1.5500  -44.8690 N   0  0  0  0  0  0  0  0  0  0  0  0
  1  2  1  0
  2  3  2  0
  3  4  1  0
  4  5  1  0
  5  6  1  0
  5  7  1  0
  5  8  1  0
  4  9  2  0
  9 10  1  0
 10 11  2  0
 11 12  1  0
 12 13  1  0
 13 14  1  0
 14 15  1  0
 15 16  1  0
 16 17  1  0
 17 18  1  0
 12 19  2  0
 19 20  1  0
 20 21  1  0
 21 22  1  0
 22 23  1  0
 23 24  1  0
 24 25  1  0
 25 26  1  0
 20 27  2  0
  9 28  1  0
 28 29  2  0
 29  2  1  0
 27 10  1  0
 18 13  1  0
 26 21  1  0
M  END
$$$$
