AEIBLQPBOBHCOV-UHFFFAOYSA-N_8BXH_m7
     RDKit          3D

 26 28  0  0  0  0  0  0  0  0999 V2000
  -19.9340   18.3610   21.3640 C   0  0  0  0  0  0  0  0  0  0  0  0
  -19.5370   19.5890   20.5390 C   0  0  2  0  0  0  0  0  0  0  0  0
  -20.5460   19.8440   19.4110 C   0  0  0  0  0  0  0  0  0  0  0  0
  -21.4910   20.9030   19.7890 C   0  0  0  0  0  0  0  0  0  0  0  0
  -22.2460   21.7150   20.1300 N   0  0  0  0  0  0  0  0  0  0  0  0
  -18.1840   19.4500   20.0060 N   0  0  0  0  0  0  0  0  0  0  0  0
  -17.8120   18.2550   19.4940 N   0  0  0  0  0  0  0  0  0  0  0  0
  -16.5440   18.4180   19.0880 C   0  0  0  0  0  0  0  0  0  0  0  0
  -15.7190   17.5090   18.5110 N   0  0  0  0  0  0  0  0  0  0  0  0
  -15.2740   16.2370   18.9250 C   0  0  0  0  0  0  0  0  0  0  0  0
  -14.0520   16.0110   19.5660 C   0  0  0  0  0  0  0  0  0  0  0  0
  -13.6650   14.7230   19.9610 C   0  0  0  0  0  0  0  0  0  0  0  0
  -14.4990   13.6230   19.7280 C   0  0  0  0  0  0  0  0  0  0  0  0
  -14.0730   12.2350   20.1310 C   0  0  0  0  0  0  0  0  0  0  0  0
  -12.9380   12.2190   20.8860 F   0  0  0  0  0  0  0  0  0  0  0  0
  -13.8200   11.4200   19.0680 F   0  0  0  0  0  0  0  0  0  0  0  0
  -15.0210   11.5950   20.8720 F   0  0  0  0  0  0  0  0  0  0  0  0
  -15.7210   13.8370   19.0800 C   0  0  0  0  0  0  0  0  0  0  0  0
  -16.1010   15.1270   18.6900 C   0  0  0  0  0  0  0  0  0  0  0  0
  -16.1240   19.7410   19.3300 C   0  0  0  0  0  0  0  0  0  0  0  0
  -14.8980   20.4660   19.0910 C   0  0  0  0  0  0  0  0  0  0  0  0
  -13.9000   19.9650   18.5840 O   0  0  0  0  0  0  0  0  0  0  0  0
  -14.9560   21.8000   19.4920 N   0  0  0  0  0  0  0  0  0  0  0  0
  -16.0670   22.4070   20.0660 C   0  0  0  0  0  0  0  0  0  0  0  0
  -17.2130   21.7370   20.2990 C   0  0  0  0  0  0  0  0  0  0  0  0
  -17.1950   20.3800   19.9120 C   0  0  0  0  0  0  0  0  0  0  0  0
  2  1  1  6
  2  3  1  0
  3  4  1  0
  4  5  3  0
  2  6  1  0
  6  7  1  0
  7  8  2  0
  8  9  1  0
  9 10  1  0
 10 11  2  0
 11 12  1  0
 12 13  2  0
 13 14  1  0
 14 15  1  0
 14 16  1  0
 14 17  1  0
 13 18  1  0
 18 19  2  0
  8 20  1  0
 20 21  1  0
 21 22  2  0
 21 23  1  0
 23 24  1  0
 24 25  2  0
 25 26  1  0
 26  6  1  0
 19 10  1  0
 26 20  2  0
M  END
$$$$
