AFBKMCYUMVDUEH-UHFFFAOYSA-N_4UDW_m4
     RDKit          3D

 39 42  0  0  0  0  0  0  0  0999 V2000
  125.1910  -12.8540  164.6310 C   0  0  0  0  0  0  0  0  0  0  0  0
  126.6080  -12.7630  164.4680 O   0  0  0  0  0  0  0  0  0  0  0  0
  127.0030  -12.5140  163.1860 C   0  0  0  0  0  0  0  0  0  0  0  0
  126.3870  -11.8280  162.3850 O   0  0  0  0  0  0  0  0  0  0  0  0
  128.3080  -13.2240  162.9230 C   0  0  0  0  0  0  0  0  0  0  0  0
  128.1060  -14.7030  162.5810 C   0  0  2  0  0  0  0  0  0  0  0  0
  128.4640  -15.5940  163.7870 C   0  0  0  0  0  0  0  0  0  0  0  0
  127.5950  -15.9210  164.5920 O   0  0  0  0  0  0  0  0  0  0  0  0
  129.8010  -15.9290  163.8530 N   0  0  0  0  0  0  0  0  0  0  0  0
  130.4570  -16.7150  164.8200 C   0  0  0  0  0  0  0  0  0  0  0  0
  130.7230  -16.2990  166.1230 C   0  0  0  0  0  0  0  0  0  0  0  0
  131.3730  -17.1590  167.0180 C   0  0  0  0  0  0  0  0  0  0  0  0
  131.7800  -18.4460  166.6290 C   0  0  0  0  0  0  0  0  0  0  0  0
  132.4340  -19.3440  167.5880 C   0  0  0  0  0  0  0  0  0  0  0  0
  131.6290  -20.2840  168.2640 C   0  0  0  0  0  0  0  0  0  0  0  0
  132.1680  -21.1720  169.1980 C   0  0  0  0  0  0  0  0  0  0  0  0
  133.5300  -21.1430  169.4780 C   0  0  0  0  0  0  0  0  0  0  0  0
  134.3510  -20.2260  168.8260 C   0  0  0  0  0  0  0  0  0  0  0  0
  133.8110  -19.3280  167.8880 C   0  0  0  0  0  0  0  0  0  0  0  0
  134.9290  -18.1980  167.1010 S   0  0  0  0  0  0  0  0  0  0  0  0
  136.4420  -18.7560  167.5680 N   0  0  0  0  0  0  0  0  0  0  0  0
  134.8920  -18.4160  165.6710 O   0  0  0  0  0  0  0  0  0  0  0  0
  134.7670  -16.8810  167.6660 O   0  0  0  0  0  0  0  0  0  0  0  0
  131.5050  -18.8600  165.3220 C   0  0  0  0  0  0  0  0  0  0  0  0
  130.8580  -18.0000  164.4380 C   0  0  0  0  0  0  0  0  0  0  0  0
  130.6130  -18.4230  163.1870 F   0  0  0  0  0  0  0  0  0  0  0  0
  128.9810  -15.1300  161.4080 C   0  0  0  0  0  0  0  0  0  0  0  0
  127.9920  -14.9680  160.3080 C   0  0  0  0  0  0  0  0  0  0  0  0
  128.3920  -14.9550  158.8830 C   0  0  0  0  0  0  0  0  0  0  0  0
  128.0390  -15.9980  158.0170 C   0  0  0  0  0  0  0  0  0  0  0  0
  128.4320  -15.9590  156.6770 C   0  0  0  0  0  0  0  0  0  0  0  0
  129.1790  -14.8820  156.1980 C   0  0  0  0  0  0  0  0  0  0  0  0
  129.5340  -13.8390  157.0610 C   0  0  0  0  0  0  0  0  0  0  0  0
  130.3260  -12.6880  156.5530 C   0  0  0  0  0  0  0  0  0  0  0  0
  130.2620  -12.2970  155.3200 N   0  0  0  0  0  0  0  0  0  0  0  0
  131.1510  -12.0040  157.3810 N   0  0  0  0  0  0  0  0  0  0  0  0
  129.1380  -13.8730  158.4010 C   0  0  0  0  0  0  0  0  0  0  0  0
  126.7650  -14.8490  160.7020 N   0  0  0  0  0  0  0  0  0  0  0  0
  126.7690  -14.9160  162.1130 O   0  0  0  0  0  0  0  0  0  0  0  0
  1  2  1  0
  2  3  1  0
  3  4  2  0
  3  5  1  0
  6  5  1  1
  6  7  1  0
  7  8  2  0
  7  9  1  0
  9 10  1  0
 10 11  2  0
 11 12  1  0
 12 13  2  0
 13 14  1  0
 14 15  2  0
 15 16  1  0
 16 17  2  0
 17 18  1  0
 18 19  2  0
 19 20  1  0
 20 21  1  0
 20 22  2  0
 20 23  2  0
 13 24  1  0
 24 25  2  0
 25 26  1  0
  6 27  1  0
 27 28  1  0
 28 29  1  0
 29 30  2  0
 30 31  1  0
 31 32  2  0
 32 33  1  0
 33 34  1  0
 34 35  2  3
 34 36  1  0
 33 37  2  0
 28 38  2  0
 38 39  1  0
 39  6  1  0
 25 10  1  0
 37 29  1  0
 19 14  1  0
M  END
$$$$
