AFMPTOAIHDQTBM-OSYLJGHBSA-N_3LXP_m5
     RDKit          3D

 30 34  0  0  0  0  0  0  0  0999 V2000
   -3.9850   29.6570  -29.9470 C   0  0  0  0  0  0  0  0  0  0  0  0
   -3.7220   28.5010  -29.0650 C   0  0  0  0  0  0  0  0  0  0  0  0
   -3.3980   28.4080  -27.7300 C   0  0  0  0  0  0  0  0  0  0  0  0
   -3.2710   27.0210  -27.4580 C   0  0  0  0  0  0  0  0  0  0  0  0
   -2.9560   26.5770  -26.2260 N   0  0  0  0  0  0  0  0  0  0  0  0
   -2.2180   25.4850  -25.7700 C   0  0  0  0  0  0  0  0  0  0  0  0
   -1.0780   25.5820  -24.9940 C   0  0  0  0  0  0  0  0  0  0  0  0
   -0.4050   24.4440  -24.5990 C   0  0  0  0  0  0  0  0  0  0  0  0
    0.7120   24.5820  -23.8550 N   0  0  0  0  0  0  0  0  0  0  0  0
    1.3820   23.4700  -23.4850 C   0  0  0  0  0  0  0  0  0  0  0  0
    0.9920   22.1930  -23.8250 C   0  0  0  0  0  0  0  0  0  0  0  0
   -0.1610   22.0530  -24.5870 C   0  0  0  0  0  0  0  0  0  0  0  0
   -0.9020   23.1900  -24.9880 C   0  0  0  0  0  0  0  0  0  0  0  0
   -2.0880   23.1570  -25.7530 C   0  0  0  0  0  0  0  0  0  0  0  0
   -2.6270   21.9380  -26.1600 N   0  0  0  0  0  0  0  0  0  0  0  0
   -2.8890   21.6750  -27.5750 C   0  0  2  0  0  0  0  0  0  0  0  0
   -1.8120   22.3290  -28.4480 C   0  0  0  0  0  0  0  0  0  0  0  0
   -2.2040   22.4630  -29.9300 C   0  0  1  0  0  0  0  0  0  0  0  0
   -2.2190   21.1230  -30.6910 C   0  0  0  0  0  0  0  0  0  0  0  0
   -3.4010   20.2160  -30.3610 C   0  0  0  0  0  0  0  0  0  0  0  0
   -4.7060   20.9830  -30.1530 C   0  0  0  0  0  0  0  0  0  0  0  0
   -4.5530   22.3350  -29.4310 C   0  0  1  0  0  0  0  0  0  0  0  0
   -4.2860   22.2050  -27.9190 C   0  0  0  0  0  0  0  0  0  0  0  0
   -3.4920   23.1760  -30.0070 N   0  0  0  0  0  0  0  0  0  0  0  0
   -3.7740   23.6820  -31.3630 C   0  0  0  0  0  0  0  0  0  0  0  0
   -5.0720   24.4830  -31.4760 C   0  0  0  0  0  0  0  0  0  0  0  0
   -5.8320   23.9430  -32.4700 F   0  0  0  0  0  0  0  0  0  0  0  0
   -2.7090   24.2870  -26.1460 N   0  0  0  0  0  0  0  0  0  0  0  0
   -3.5040   26.3050  -28.5600 N   0  0  0  0  0  0  0  0  0  0  0  0
   -3.7730   27.2110  -29.5080 N   0  0  0  0  0  0  0  0  0  0  0  0
  1  2  1  0
  2  3  2  0
  3  4  1  0
  4  5  1  0
  5  6  1  0
  6  7  2  0
  7  8  1  0
  8  9  2  0
  9 10  1  0
 10 11  2  0
 11 12  1  0
 12 13  2  0
 13 14  1  0
 14 15  1  0
 16 15  1  1
 16 17  1  0
 18 17  1  1
 18 19  1  0
 19 20  1  0
 20 21  1  0
 22 21  1  6
 22 23  1  0
 22 24  1  0
 24 25  1  0
 25 26  1  0
 26 27  1  0
 14 28  2  0
  4 29  2  0
 29 30  1  0
 30  2  1  0
 28  6  1  0
 13  8  1  0
 23 16  1  0
 24 18  1  0
M  END
$$$$
