AGRKTWIASZYTNW-UHFFFAOYSA-N_9V8H_m7
     RDKit          3D

 33 36  0  0  0  0  0  0  0  0999 V2000
   -6.6900   -8.7430  -32.4810 O   0  0  0  0  0  0  0  0  0  0  0  0
   -7.5690   -8.0650  -31.9790 C   0  0  0  0  0  0  0  0  0  0  0  0
   -7.3280   -7.3970  -30.8290 O   0  0  0  0  0  0  0  0  0  0  0  0
   -8.9680   -7.8120  -32.4900 C   0  0  0  0  0  0  0  0  0  0  0  0
   -9.7990   -6.9990  -31.5360 C   0  0  0  0  0  0  0  0  0  0  0  0
  -10.1160   -5.6690  -31.7340 C   0  0  0  0  0  0  0  0  0  0  0  0
  -11.0610   -5.0190  -30.4780 S   0  0  0  0  0  0  0  0  0  0  0  0
  -11.0810   -6.5120  -29.6200 C   0  0  0  0  0  0  0  0  0  0  0  0
  -11.7240   -6.7630  -28.3870 C   0  0  0  0  0  0  0  0  0  0  0  0
  -11.6400   -8.0390  -27.8260 C   0  0  0  0  0  0  0  0  0  0  0  0
  -12.2060   -8.4330  -26.6440 O   0  0  0  0  0  0  0  0  0  0  0  0
  -12.0740   -7.5510  -25.5330 C   0  0  0  0  0  0  0  0  0  0  0  0
  -10.8630   -7.9750  -24.7390 C   0  0  0  0  0  0  0  0  0  0  0  0
   -9.5740   -7.6250  -25.1630 C   0  0  0  0  0  0  0  0  0  0  0  0
   -8.4540   -8.0310  -24.4330 C   0  0  0  0  0  0  0  0  0  0  0  0
   -8.6010   -8.8070  -23.2750 C   0  0  0  0  0  0  0  0  0  0  0  0
   -7.3880   -9.2340  -22.4850 C   0  0  0  0  0  0  0  0  0  0  0  0
   -7.4870   -8.6660  -21.1800 O   0  0  0  0  0  0  0  0  0  0  0  0
   -6.8620   -7.4690  -20.9720 C   0  0  0  0  0  0  0  0  0  0  0  0
   -7.4820   -6.2260  -20.8470 C   0  0  0  0  0  0  0  0  0  0  0  0
   -6.7130   -5.0750  -20.6360 C   0  0  0  0  0  0  0  0  0  0  0  0
   -5.3140   -5.1490  -20.5530 C   0  0  0  0  0  0  0  0  0  0  0  0
   -4.4930   -3.9090  -20.3020 C   0  0  0  0  0  0  0  0  0  0  0  0
   -4.7470   -3.3320  -19.0930 F   0  0  0  0  0  0  0  0  0  0  0  0
   -4.7180   -2.9420  -21.2320 F   0  0  0  0  0  0  0  0  0  0  0  0
   -3.1520   -4.1450  -20.3250 F   0  0  0  0  0  0  0  0  0  0  0  0
   -4.7000   -6.4040  -20.6710 C   0  0  0  0  0  0  0  0  0  0  0  0
   -5.4710   -7.5490  -20.8820 C   0  0  0  0  0  0  0  0  0  0  0  0
   -9.8890   -9.1570  -22.8530 C   0  0  0  0  0  0  0  0  0  0  0  0
  -11.0090   -8.7520  -23.5830 C   0  0  0  0  0  0  0  0  0  0  0  0
  -10.9320   -9.0360  -28.4840 C   0  0  0  0  0  0  0  0  0  0  0  0
  -10.2970   -8.7850  -29.7060 C   0  0  0  0  0  0  0  0  0  0  0  0
  -10.3630   -7.5000  -30.2990 C   0  0  0  0  0  0  0  0  0  0  0  0
  1  2  2  0
  2  3  1  0
  2  4  1  0
  4  5  1  0
  5  6  2  0
  6  7  1  0
  7  8  1  0
  8  9  2  0
  9 10  1  0
 10 11  1  0
 11 12  1  0
 12 13  1  0
 13 14  2  0
 14 15  1  0
 15 16  2  0
 16 17  1  0
 17 18  1  0
 18 19  1  0
 19 20  2  0
 20 21  1  0
 21 22  2  0
 22 23  1  0
 23 24  1  0
 23 25  1  0
 23 26  1  0
 22 27  1  0
 27 28  2  0
 16 29  1  0
 29 30  2  0
 10 31  2  0
 31 32  1  0
 32 33  2  0
 33  5  1  0
 33  8  1  0
 30 13  1  0
 28 19  1  0
M  END
$$$$
