AHFFQQULYWODLH-UHFFFAOYSA-N_3LXP_m5
     RDKit          3D

 31 35  0  0  0  0  0  0  0  0999 V2000
    0.2320   24.5520  -26.4760 N   0  0  0  0  0  0  0  0  0  0  0  0
   -0.6420   23.7900  -26.5110 C   0  0  0  0  0  0  0  0  0  0  0  0
   -1.7430   22.8160  -26.5570 C   0  0  0  0  0  0  0  0  0  0  0  0
   -2.5930   22.9570  -27.8190 C   0  0  1  0  0  0  0  0  0  0  0  0
   -3.1670   24.3300  -27.9110 N   0  0  0  0  0  0  0  0  0  0  0  0
   -3.3020   25.0970  -26.8100 N   0  0  0  0  0  0  0  0  0  0  0  0
   -3.7360   26.2450  -27.3390 C   0  0  0  0  0  0  0  0  0  0  0  0
   -3.8210   26.1380  -28.7440 C   0  0  0  0  0  0  0  0  0  0  0  0
   -4.2460   27.1440  -29.7080 C   0  0  0  0  0  0  0  0  0  0  0  0
   -3.9410   28.4860  -29.4250 C   0  0  0  0  0  0  0  0  0  0  0  0
   -4.3050   29.5240  -30.2930 C   0  0  0  0  0  0  0  0  0  0  0  0
   -3.9830   30.9300  -29.9670 C   0  0  0  0  0  0  0  0  0  0  0  0
   -4.9170   31.9510  -30.0110 C   0  0  0  0  0  0  0  0  0  0  0  0
   -4.4840   33.2170  -29.6790 C   0  0  0  0  0  0  0  0  0  0  0  0
   -5.3620   34.2830  -29.6610 N   0  0  0  0  0  0  0  0  0  0  0  0
   -3.2300   33.4740  -29.2980 N   0  0  0  0  0  0  0  0  0  0  0  0
   -2.3960   32.4290  -29.2800 C   0  0  0  0  0  0  0  0  0  0  0  0
   -2.7030   31.1650  -29.6000 N   0  0  0  0  0  0  0  0  0  0  0  0
   -4.9780   29.1600  -31.4720 C   0  0  0  0  0  0  0  0  0  0  0  0
   -5.3020   27.8470  -31.7900 C   0  0  0  0  0  0  0  0  0  0  0  0
   -5.9470   27.6310  -32.9490 N   0  0  0  0  0  0  0  0  0  0  0  0
   -6.2680   26.3610  -33.2760 C   0  0  0  0  0  0  0  0  0  0  0  0
   -5.9630   25.2710  -32.4930 C   0  0  0  0  0  0  0  0  0  0  0  0
   -5.2910   25.5000  -31.2990 C   0  0  0  0  0  0  0  0  0  0  0  0
   -4.9390   26.8110  -30.9040 C   0  0  0  0  0  0  0  0  0  0  0  0
   -3.4510   24.8970  -29.0950 N   0  0  0  0  0  0  0  0  0  0  0  0
   -2.0050   22.4450  -29.1750 C   0  0  0  0  0  0  0  0  0  0  0  0
   -2.7130   21.0920  -28.9160 C   0  0  2  0  0  0  0  0  0  0  0  0
   -3.2940   20.4480  -30.0750 C   0  0  0  0  0  0  0  0  0  0  0  0
   -3.7620   19.9300  -31.0010 N   0  0  0  0  0  0  0  0  0  0  0  0
   -3.7010   21.8720  -28.0100 C   0  0  0  0  0  0  0  0  0  0  0  0
  1  2  3  0
  2  3  1  0
  4  3  1  1
  4  5  1  0
  5  6  1  0
  6  7  2  0
  7  8  1  0
  8  9  1  0
  9 10  2  0
 10 11  1  0
 11 12  1  0
 12 13  2  0
 13 14  1  0
 14 15  1  0
 14 16  2  0
 16 17  1  0
 17 18  2  0
 11 19  2  0
 19 20  1  0
 20 21  2  0
 21 22  1  0
 22 23  2  0
 23 24  1  0
 24 25  2  0
  8 26  2  0
  4 27  1  0
 27 28  1  0
 28 29  1  6
 29 30  3  0
 28 31  1  0
 31  4  1  0
 26  5  1  0
 25  9  1  0
 18 12  1  0
 25 20  1  0
M  END
$$$$
