AIGIECZGNBILAQ-UHFFFAOYSA-N_4EY7_m3
     RDKit          3D

 29 32  0  0  0  0  0  0  0  0999 V2000
   -7.3010  -43.8440   32.2540 C   0  0  0  0  0  0  0  0  0  0  0  0
   -8.6430  -44.4570   31.9880 C   0  0  0  0  0  0  0  0  0  0  0  0
   -8.7430  -45.7880   31.5690 C   0  0  0  0  0  0  0  0  0  0  0  0
   -9.9950  -46.3690   31.3510 C   0  0  0  0  0  0  0  0  0  0  0  0
  -11.1710  -45.6320   31.5530 C   0  0  0  0  0  0  0  0  0  0  0  0
  -12.5270  -46.2690   31.3340 C   0  0  0  0  0  0  0  0  0  0  0  0
  -13.0490  -46.0870   29.9660 N   0  0  0  0  0  0  0  0  0  0  0  0
  -13.7720  -44.8090   29.8740 C   0  0  0  0  0  0  0  0  0  0  0  0
  -14.3860  -44.6190   28.4860 C   0  0  0  0  0  0  0  0  0  0  0  0
  -13.3170  -44.6940   27.3870 C   0  0  0  0  0  0  0  0  0  0  0  0
  -13.9390  -44.6200   25.9850 C   0  0  0  0  0  0  0  0  0  0  0  0
  -14.6800  -43.3200   25.7220 C   0  0  0  0  0  0  0  0  0  0  0  0
  -14.6320  -42.3440   26.4620 O   0  0  0  0  0  0  0  0  0  0  0  0
  -15.3970  -43.3420   24.5450 N   0  0  0  0  0  0  0  0  0  0  0  0
  -16.1590  -42.1910   24.0960 C   0  0  0  0  0  0  0  0  0  0  0  0
  -17.6450  -42.5110   23.9170 C   0  0  0  0  0  0  0  0  0  0  0  0
  -18.4480  -42.1750   25.1340 C   0  0  0  0  0  0  0  0  0  0  0  0
  -18.0820  -42.3860   26.4490 C   0  0  0  0  0  0  0  0  0  0  0  0
  -19.0940  -41.9360   27.2540 N   0  0  0  0  0  0  0  0  0  0  0  0
  -20.1230  -41.4370   26.4920 C   0  0  0  0  0  0  0  0  0  0  0  0
  -21.3480  -40.8790   26.8810 C   0  0  0  0  0  0  0  0  0  0  0  0
  -22.2120  -40.4450   25.8710 C   0  0  0  0  0  0  0  0  0  0  0  0
  -21.8630  -40.5630   24.5270 C   0  0  0  0  0  0  0  0  0  0  0  0
  -20.6340  -41.1220   24.1570 C   0  0  0  0  0  0  0  0  0  0  0  0
  -19.7450  -41.5690   25.1560 C   0  0  0  0  0  0  0  0  0  0  0  0
  -12.5190  -45.9940   27.5500 C   0  0  0  0  0  0  0  0  0  0  0  0
  -11.9680  -46.1420   28.9700 C   0  0  0  0  0  0  0  0  0  0  0  0
  -11.0670  -44.3050   31.9920 C   0  0  0  0  0  0  0  0  0  0  0  0
   -9.8150  -43.7250   32.2090 C   0  0  0  0  0  0  0  0  0  0  0  0
  1  2  1  0
  2  3  2  0
  3  4  1  0
  4  5  2  0
  5  6  1  0
  6  7  1  0
  7  8  1  0
  8  9  1  0
  9 10  1  0
 10 11  1  0
 11 12  1  0
 12 13  2  0
 12 14  1  0
 14 15  1  0
 15 16  1  0
 16 17  1  0
 17 18  2  0
 18 19  1  0
 19 20  1  0
 20 21  2  0
 21 22  1  0
 22 23  2  0
 23 24  1  0
 24 25  2  0
 10 26  1  0
 26 27  1  0
  5 28  1  0
 28 29  2  0
 29  2  1  0
 27  7  1  0
 25 17  1  0
 25 20  1  0
M  END
$$$$
