AINQVQKSQFDZMT-HMMYKYKNSA-N_4UDW_m4
     RDKit          3D

 41 44  0  0  0  0  0  0  0  0999 V2000
  124.6720  -13.8830  164.9830 C   0  0  0  0  0  0  0  0  0  0  0  0
  125.9440  -14.3470  164.5290 O   0  0  0  0  0  0  0  0  0  0  0  0
  126.2190  -14.0270  163.2320 C   0  0  0  0  0  0  0  0  0  0  0  0
  125.8390  -13.0080  162.6670 O   0  0  0  0  0  0  0  0  0  0  0  0
  127.0630  -15.1130  162.5940 C   0  0  2  0  0  0  0  0  0  0  0  0
  127.0340  -16.3630  163.4930 C   0  0  0  0  0  0  0  0  0  0  0  0
  126.9690  -17.6520  162.7030 C   0  0  0  0  0  0  0  0  0  0  0  0
  127.9440  -17.9520  161.7420 C   0  0  0  0  0  0  0  0  0  0  0  0
  127.8620  -19.1270  160.9930 C   0  0  0  0  0  0  0  0  0  0  0  0
  126.8010  -20.0130  161.1920 C   0  0  0  0  0  0  0  0  0  0  0  0
  125.8260  -19.7270  162.1510 C   0  0  0  0  0  0  0  0  0  0  0  0
  124.6800  -20.6550  162.3560 C   0  0  0  0  0  0  0  0  0  0  0  0
  124.5710  -21.3970  163.4120 N   0  0  0  0  0  0  0  0  0  0  0  0
  123.7020  -20.7550  161.4240 N   0  0  0  0  0  0  0  0  0  0  0  0
  125.9120  -18.5510  162.9050 C   0  0  0  0  0  0  0  0  0  0  0  0
  128.4860  -14.5520  162.3880 C   0  0  2  0  0  0  0  0  0  0  0  0
  128.9430  -14.6980  160.9540 C   0  0  0  0  0  0  0  0  0  0  0  0
  128.0990  -14.7310  159.9090 C   0  0  0  0  0  0  0  0  0  0  0  0
  128.5260  -14.8980  158.5140 C   0  0  0  0  0  0  0  0  0  0  0  0
  129.3170  -13.9040  157.9240 C   0  0  0  0  0  0  0  0  0  0  0  0
  129.7150  -14.0120  156.5890 C   0  0  0  0  0  0  0  0  0  0  0  0
  129.3180  -15.1090  155.8280 C   0  0  0  0  0  0  0  0  0  0  0  0
  128.5180  -16.0970  156.4000 C   0  0  0  0  0  0  0  0  0  0  0  0
  128.1190  -15.9890  157.7350 C   0  0  0  0  0  0  0  0  0  0  0  0
  129.4820  -15.2680  163.1760 N   0  0  0  0  0  0  0  0  0  0  0  0
  130.7340  -14.7440  163.4180 C   0  0  0  0  0  0  0  0  0  0  0  0
  131.1050  -13.6580  162.9910 O   0  0  0  0  0  0  0  0  0  0  0  0
  131.6520  -15.5790  164.2380 C   0  0  0  0  0  0  0  0  0  0  0  0
  131.1110  -16.6400  164.9710 C   0  0  0  0  0  0  0  0  0  0  0  0
  131.9410  -17.4520  165.7470 C   0  0  0  0  0  0  0  0  0  0  0  0
  133.3260  -17.2290  165.7940 C   0  0  0  0  0  0  0  0  0  0  0  0
  134.2000  -18.0970  166.5970 C   0  0  0  0  0  0  0  0  0  0  0  0
  134.3550  -17.8290  167.9710 C   0  0  0  0  0  0  0  0  0  0  0  0
  135.1810  -18.6200  168.7690 C   0  0  0  0  0  0  0  0  0  0  0  0
  135.8630  -19.6920  168.2060 C   0  0  0  0  0  0  0  0  0  0  0  0
  135.7230  -19.9780  166.8450 C   0  0  0  0  0  0  0  0  0  0  0  0
  134.8970  -19.1910  166.0330 C   0  0  0  0  0  0  0  0  0  0  0  0
  134.6950  -19.4080  164.6930 O   0  0  0  0  0  0  0  0  0  0  0  0
  135.2590  -20.5820  164.1230 C   0  0  0  0  0  0  0  0  0  0  0  0
  133.8610  -16.1730  165.0380 C   0  0  0  0  0  0  0  0  0  0  0  0
  133.0330  -15.3530  164.2630 C   0  0  0  0  0  0  0  0  0  0  0  0
  1  2  1  0
  2  3  1  0
  3  4  2  0
  3  5  1  0
  5  6  1  1
  6  7  1  0
  7  8  2  0
  8  9  1  0
  9 10  2  0
 10 11  1  0
 11 12  1  0
 12 13  2  3
 12 14  1  0
 11 15  2  0
  5 16  1  0
 16 17  1  0
 17 18  2  0
 18 19  1  0
 19 20  2  0
 20 21  1  0
 21 22  2  0
 22 23  1  0
 23 24  2  0
 16 25  1  1
 25 26  1  0
 26 27  2  0
 26 28  1  0
 28 29  2  0
 29 30  1  0
 30 31  2  0
 31 32  1  0
 32 33  2  0
 33 34  1  0
 34 35  2  0
 35 36  1  0
 36 37  2  0
 37 38  1  0
 38 39  1  0
 31 40  1  0
 40 41  2  0
 15  7  1  0
 24 19  1  0
 41 28  1  0
 37 32  1  0
M  END
$$$$
