AIZUZOZYGWNPIO-UHFFFAOYSA-N_4UDW_m5
     RDKit          3D

 44 49  0  0  0  0  0  0  0  0999 V2000
  132.4970  -18.3900  163.6590 C   0  0  0  0  0  0  0  0  0  0  0  0
  131.7820  -19.3470  164.4320 O   0  0  0  0  0  0  0  0  0  0  0  0
  130.4100  -19.3460  164.3510 C   0  0  0  0  0  0  0  0  0  0  0  0
  129.6630  -18.8580  163.3460 C   0  0  0  0  0  0  0  0  0  0  0  0
  128.2730  -18.9270  163.3590 N   0  0  0  0  0  0  0  0  0  0  0  0
  127.4890  -18.4470  162.1960 C   0  0  1  0  0  0  0  0  0  0  0  0
  126.6850  -19.5700  161.5070 C   0  0  0  0  0  0  0  0  0  0  0  0
  127.3550  -20.0900  160.2560 C   0  0  0  0  0  0  0  0  0  0  0  0
  128.3230  -19.3220  159.5940 C   0  0  0  0  0  0  0  0  0  0  0  0
  128.9570  -19.8160  158.4540 C   0  0  0  0  0  0  0  0  0  0  0  0
  128.6340  -21.0810  157.9670 C   0  0  0  0  0  0  0  0  0  0  0  0
  127.6770  -21.8540  158.6200 C   0  0  0  0  0  0  0  0  0  0  0  0
  127.0390  -21.3640  159.7600 C   0  0  0  0  0  0  0  0  0  0  0  0
  126.6510  -17.2820  162.6430 C   0  0  0  0  0  0  0  0  0  0  0  0
  127.0050  -16.1960  163.4150 C   0  0  0  0  0  0  0  0  0  0  0  0
  125.8520  -15.4610  163.5520 N   0  0  0  0  0  0  0  0  0  0  0  0
  125.6460  -14.2500  164.2630 C   0  0  0  0  0  0  0  0  0  0  0  0
  124.6400  -14.1850  165.2410 C   0  0  0  0  0  0  0  0  0  0  0  0
  124.4300  -13.0020  165.9570 C   0  0  0  0  0  0  0  0  0  0  0  0
  125.2150  -11.8730  165.6990 C   0  0  0  0  0  0  0  0  0  0  0  0
  124.9610  -10.6440  166.4900 C   0  0  0  0  0  0  0  0  0  0  0  0
  123.8690  -10.2190  166.8120 O   0  0  0  0  0  0  0  0  0  0  0  0
  126.0920  -10.0070  166.8410 O   0  0  0  0  0  0  0  0  0  0  0  0
  126.2150  -11.9340  164.7210 C   0  0  0  0  0  0  0  0  0  0  0  0
  126.4330  -13.1190  164.0060 C   0  0  0  0  0  0  0  0  0  0  0  0
  124.8470  -16.0800  162.8820 N   0  0  0  0  0  0  0  0  0  0  0  0
  125.3230  -17.1820  162.3250 N   0  0  0  0  0  0  0  0  0  0  0  0
  127.5810  -19.4970  164.4230 C   0  0  0  0  0  0  0  0  0  0  0  0
  126.3590  -19.5940  164.4980 O   0  0  0  0  0  0  0  0  0  0  0  0
  128.4070  -20.0370  165.5310 C   0  0  0  0  0  0  0  0  0  0  0  0
  129.7500  -19.9840  165.4870 C   0  0  0  0  0  0  0  0  0  0  0  0
  130.4900  -20.5840  166.6240 C   0  0  0  0  0  0  0  0  0  0  0  0
  130.2810  -21.9670  166.8210 C   0  0  0  0  0  0  0  0  0  0  0  0
  130.8350  -22.6320  167.9120 C   0  0  0  0  0  0  0  0  0  0  0  0
  130.5630  -24.3190  168.1160 Cl  0  0  0  0  0  0  0  0  0  0  0  0
  131.5960  -21.9380  168.8400 C   0  0  0  0  0  0  0  0  0  0  0  0
  131.8120  -20.5690  168.6690 C   0  0  0  0  0  0  0  0  0  0  0  0
  131.2800  -19.8740  167.5590 C   0  0  0  0  0  0  0  0  0  0  0  0
  131.5780  -18.4790  167.4640 N   0  0  0  0  0  0  0  0  0  0  0  0
  132.7800  -17.8220  167.3500 C   0  0  0  0  0  0  0  0  0  0  0  0
  132.4570  -16.4910  167.2710 C   0  0  0  0  0  0  0  0  0  0  0  0
  133.5350  -15.1930  167.0960 Cl  0  0  0  0  0  0  0  0  0  0  0  0
  131.1100  -16.3450  167.3860 N   0  0  0  0  0  0  0  0  0  0  0  0
  130.5820  -17.5530  167.5390 N   0  0  0  0  0  0  0  0  0  0  0  0
  1  2  1  0
  2  3  1  0
  3  4  2  0
  4  5  1  0
  5  6  1  0
  6  7  1  1
  7  8  1  0
  8  9  2  0
  9 10  1  0
 10 11  2  0
 11 12  1  0
 12 13  2  0
  6 14  1  0
 14 15  2  0
 15 16  1  0
 16 17  1  0
 17 18  2  0
 18 19  1  0
 19 20  2  0
 20 21  1  0
 21 22  2  0
 21 23  1  0
 20 24  1  0
 24 25  2  0
 16 26  1  0
 26 27  2  0
  5 28  1  0
 28 29  2  0
 28 30  1  0
 30 31  2  0
 31 32  1  0
 32 33  2  0
 33 34  1  0
 34 35  1  0
 34 36  2  0
 36 37  1  0
 37 38  2  0
 38 39  1  0
 39 40  1  0
 40 41  2  0
 41 42  1  0
 41 43  1  0
 43 44  2  0
 31  3  1  0
 38 32  1  0
 44 39  1  0
 13  8  1  0
 27 14  1  0
 25 17  1  0
M  END
$$$$
