AMCWIARZLJUBEG-UWELNFAVSA-N_6N7A_m4
     RDKit          3D

 30 34  0  0  0  0  0  0  0  0999 V2000
    2.1360  -27.2470   21.2910 C   0  0  0  0  0  0  0  0  0  0  0  0
    3.4340  -26.6840   21.5590 N   0  0  0  0  0  0  0  0  0  0  0  0
    3.9720  -25.5060   21.1190 C   0  0  0  0  0  0  0  0  0  0  0  0
    5.0670  -25.1270   21.8010 C   0  0  0  0  0  0  0  0  0  0  0  0
    5.8900  -23.9530   21.6220 C   0  0  0  0  0  0  0  0  0  0  0  0
    7.2180  -23.9960   21.4190 C   0  0  0  0  0  0  0  0  0  0  0  0
    7.9280  -22.8200   21.2650 N   0  0  0  0  0  0  0  0  0  0  0  0
    9.2580  -22.6590   21.0700 N   0  0  0  0  0  0  0  0  0  0  0  0
    9.4420  -21.3390   21.0650 C   0  0  0  0  0  0  0  0  0  0  0  0
    8.2410  -20.6280   21.2260 C   0  0  0  0  0  0  0  0  0  0  0  0
    7.2730  -21.6040   21.3190 C   0  0  0  0  0  0  0  0  0  0  0  0
    5.8480  -21.6390   21.5000 C   0  0  0  0  0  0  0  0  0  0  0  0
    5.0750  -20.4140   21.5130 C   0  0  0  0  0  0  0  0  0  0  0  0
    4.8690  -19.5430   22.6090 C   0  0  0  0  0  0  0  0  0  0  0  0
    4.1160  -18.4840   22.3000 N   0  0  0  0  0  0  0  0  0  0  0  0
    3.7870  -18.6930   21.0170 N   0  0  0  0  0  0  0  0  0  0  0  0
    2.9770  -17.7000   20.2410 C   0  0  1  0  0  0  0  0  0  0  0  0
    1.5160  -17.7210   20.6880 C   0  0  0  0  0  0  0  0  0  0  0  0
    0.7280  -16.6740   20.0230 C   0  0  0  0  0  0  0  0  0  0  0  0
    0.1530  -15.8310   19.4740 N   0  0  0  0  0  0  0  0  0  0  0  0
    3.6880  -16.3170   20.0780 C   0  0  0  0  0  0  0  0  0  0  0  0
    4.3520  -16.8570   18.7830 C   0  0  2  0  0  0  0  0  0  0  0  0
    4.4550  -15.9130   17.6940 C   0  0  0  0  0  0  0  0  0  0  0  0
    4.5230  -15.1490   16.8240 N   0  0  0  0  0  0  0  0  0  0  0  0
    3.1750  -17.8600   18.6950 C   0  0  0  0  0  0  0  0  0  0  0  0
    4.3330  -19.8350   20.4990 C   0  0  0  0  0  0  0  0  0  0  0  0
    5.1910  -22.7520   21.6650 N   0  0  0  0  0  0  0  0  0  0  0  0
    5.2220  -26.2080   22.8340 C   0  0  0  0  0  0  0  0  0  0  0  0
    6.0880  -26.2940   23.6860 O   0  0  0  0  0  0  0  0  0  0  0  0
    4.1800  -27.1030   22.6350 N   0  0  0  0  0  0  0  0  0  0  0  0
  1  2  1  0
  2  3  1  0
  3  4  2  0
  4  5  1  0
  5  6  2  0
  6  7  1  0
  7  8  1  0
  8  9  2  0
  9 10  1  0
 10 11  2  0
 11 12  1  0
 12 13  1  0
 13 14  1  0
 14 15  2  0
 15 16  1  0
 16 17  1  0
 17 18  1  1
 18 19  1  0
 19 20  3  0
 17 21  1  0
 21 22  1  0
 22 23  1  1
 23 24  3  0
 22 25  1  0
 16 26  1  0
 12 27  2  0
  4 28  1  0
 28 29  2  0
 28 30  1  0
 30  2  1  0
 27  5  1  0
 11  7  1  0
 26 13  2  0
 25 17  1  0
M  END
$$$$
