AMCWIARZLJUBEG-UWELNFAVSA-N_6N7A_m6
     RDKit          3D

 30 34  0  0  0  0  0  0  0  0999 V2000
   -1.0760  -16.5930   18.4590 C   0  0  0  0  0  0  0  0  0  0  0  0
    0.1190  -16.4510   19.2490 N   0  0  0  0  0  0  0  0  0  0  0  0
    1.3230  -17.0870   19.1150 C   0  0  0  0  0  0  0  0  0  0  0  0
    2.3190  -16.5020   19.8040 C   0  0  0  0  0  0  0  0  0  0  0  0
    3.7090  -16.8870   19.8980 C   0  0  0  0  0  0  0  0  0  0  0  0
    4.7310  -16.0760   19.5750 C   0  0  0  0  0  0  0  0  0  0  0  0
    6.0320  -16.5310   19.6880 N   0  0  0  0  0  0  0  0  0  0  0  0
    7.1800  -15.8760   19.3980 N   0  0  0  0  0  0  0  0  0  0  0  0
    8.1430  -16.7750   19.6050 C   0  0  0  0  0  0  0  0  0  0  0  0
    7.6410  -18.0070   20.0550 C   0  0  0  0  0  0  0  0  0  0  0  0
    6.2790  -17.8150   20.1340 C   0  0  0  0  0  0  0  0  0  0  0  0
    5.1370  -18.6100   20.4980 C   0  0  0  0  0  0  0  0  0  0  0  0
    5.3080  -19.9470   21.0270 C   0  0  0  0  0  0  0  0  0  0  0  0
    5.1960  -20.3540   22.3780 C   0  0  0  0  0  0  0  0  0  0  0  0
    5.3990  -21.6630   22.5480 N   0  0  0  0  0  0  0  0  0  0  0  0
    5.6960  -22.1000   21.3160 N   0  0  0  0  0  0  0  0  0  0  0  0
    5.9450  -23.5510   21.0340 C   0  0  1  0  0  0  0  0  0  0  0  0
    7.3910  -23.7790   20.5980 C   0  0  0  0  0  0  0  0  0  0  0  0
    8.1660  -24.4800   21.6320 C   0  0  0  0  0  0  0  0  0  0  0  0
    8.7330  -25.0320   22.4780 N   0  0  0  0  0  0  0  0  0  0  0  0
    5.3300  -24.5020   22.1120 C   0  0  0  0  0  0  0  0  0  0  0  0
    4.0150  -24.5200   21.2860 C   0  0  2  0  0  0  0  0  0  0  0  0
    3.3380  -25.7950   21.2180 C   0  0  0  0  0  0  0  0  0  0  0  0
    2.8090  -26.8260   21.1630 N   0  0  0  0  0  0  0  0  0  0  0  0
    4.8780  -24.1500   20.0550 C   0  0  0  0  0  0  0  0  0  0  0  0
    5.6580  -21.1130   20.3700 C   0  0  0  0  0  0  0  0  0  0  0  0
    3.9150  -18.1790   20.3670 N   0  0  0  0  0  0  0  0  0  0  0  0
    1.6500  -15.3160   20.4390 C   0  0  0  0  0  0  0  0  0  0  0  0
    2.1620  -14.4830   21.1660 O   0  0  0  0  0  0  0  0  0  0  0  0
    0.3220  -15.3430   20.0350 N   0  0  0  0  0  0  0  0  0  0  0  0
  1  2  1  0
  2  3  1  0
  3  4  2  0
  4  5  1  0
  5  6  2  0
  6  7  1  0
  7  8  1  0
  8  9  2  0
  9 10  1  0
 10 11  2  0
 11 12  1  0
 12 13  1  0
 13 14  1  0
 14 15  2  0
 15 16  1  0
 16 17  1  0
 17 18  1  1
 18 19  1  0
 19 20  3  0
 17 21  1  0
 21 22  1  0
 22 23  1  1
 23 24  3  0
 22 25  1  0
 16 26  1  0
 12 27  2  0
  4 28  1  0
 28 29  2  0
 28 30  1  0
 30  2  1  0
 27  5  1  0
 11  7  1  0
 26 13  2  0
 25 17  1  0
M  END
$$$$
