AMCWIARZLJUBEG-UWELNFAVSA-N_6N7A_m8
     RDKit          3D

 30 34  0  0  0  0  0  0  0  0999 V2000
   -1.3080  -16.3570   18.4110 C   0  0  0  0  0  0  0  0  0  0  0  0
   -0.1160  -16.1970   19.2030 N   0  0  0  0  0  0  0  0  0  0  0  0
    1.0820  -16.8490   19.1000 C   0  0  0  0  0  0  0  0  0  0  0  0
    2.0800  -16.2480   19.7720 C   0  0  0  0  0  0  0  0  0  0  0  0
    3.4660  -16.6420   19.8890 C   0  0  0  0  0  0  0  0  0  0  0  0
    4.4960  -15.8710   19.5000 C   0  0  0  0  0  0  0  0  0  0  0  0
    5.7910  -16.3330   19.6420 N   0  0  0  0  0  0  0  0  0  0  0  0
    6.9460  -15.7170   19.2960 N   0  0  0  0  0  0  0  0  0  0  0  0
    7.8990  -16.6100   19.5670 C   0  0  0  0  0  0  0  0  0  0  0  0
    7.3840  -17.7970   20.1130 C   0  0  0  0  0  0  0  0  0  0  0  0
    6.0250  -17.5830   20.1830 C   0  0  0  0  0  0  0  0  0  0  0  0
    4.8760  -18.3330   20.6130 C   0  0  0  0  0  0  0  0  0  0  0  0
    5.0330  -19.6270   21.2420 C   0  0  0  0  0  0  0  0  0  0  0  0
    4.9840  -19.9170   22.6270 C   0  0  0  0  0  0  0  0  0  0  0  0
    5.1540  -21.2140   22.8950 N   0  0  0  0  0  0  0  0  0  0  0  0
    5.3670  -21.7610   21.6900 N   0  0  0  0  0  0  0  0  0  0  0  0
    5.5530  -23.2390   21.5190 C   0  0  1  0  0  0  0  0  0  0  0  0
    4.5520  -23.7990   20.5100 C   0  0  0  0  0  0  0  0  0  0  0  0
    5.1720  -24.0240   19.1970 C   0  0  0  0  0  0  0  0  0  0  0  0
    5.7070  -24.1820   18.1810 N   0  0  0  0  0  0  0  0  0  0  0  0
    7.0530  -23.6600   21.3960 C   0  0  0  0  0  0  0  0  0  0  0  0
    7.1020  -23.7880   22.9420 C   0  0  2  0  0  0  0  0  0  0  0  0
    7.8670  -24.9020   23.4540 C   0  0  0  0  0  0  0  0  0  0  0  0
    8.4760  -25.8050   23.8520 N   0  0  0  0  0  0  0  0  0  0  0  0
    5.5670  -23.9920   22.8930 C   0  0  0  0  0  0  0  0  0  0  0  0
    5.3080  -20.8550   20.6680 C   0  0  0  0  0  0  0  0  0  0  0  0
    3.6580  -17.8980   20.4550 N   0  0  0  0  0  0  0  0  0  0  0  0
    1.4190  -15.0320   20.3570 C   0  0  0  0  0  0  0  0  0  0  0  0
    1.9350  -14.1780   21.0560 O   0  0  0  0  0  0  0  0  0  0  0  0
    0.0940  -15.0620   19.9480 N   0  0  0  0  0  0  0  0  0  0  0  0
  1  2  1  0
  2  3  1  0
  3  4  2  0
  4  5  1  0
  5  6  2  0
  6  7  1  0
  7  8  1  0
  8  9  2  0
  9 10  1  0
 10 11  2  0
 11 12  1  0
 12 13  1  0
 13 14  1  0
 14 15  2  0
 15 16  1  0
 16 17  1  0
 17 18  1  1
 18 19  1  0
 19 20  3  0
 17 21  1  0
 21 22  1  0
 22 23  1  1
 23 24  3  0
 22 25  1  0
 16 26  1  0
 12 27  2  0
  4 28  1  0
 28 29  2  0
 28 30  1  0
 30  2  1  0
 27  5  1  0
 11  7  1  0
 26 13  2  0
 25 17  1  0
M  END
$$$$
