AMKFBXVTNZFKFF-UHFFFAOYSA-N_3POZ_m8
     RDKit          3D

 42 46  0  0  0  0  0  0  0  0999 V2000
   23.0770   32.7720   11.8840 O   0  0  0  0  0  0  0  0  0  0  0  0
   23.1570   32.9550   13.0960 C   0  0  0  0  0  0  0  0  0  0  0  0
   24.1790   32.2990   14.0030 C   0  0  0  0  0  0  0  0  0  0  0  0
   25.5360   33.0030   14.0000 C   0  0  0  0  0  0  0  0  0  0  0  0
   25.7350   33.8900   15.2340 C   0  0  0  0  0  0  0  0  0  0  0  0
   24.9020   33.4470   16.4420 C   0  0  0  0  0  0  0  0  0  0  0  0
   24.7910   34.5220   17.5290 C   0  0  0  0  0  0  0  0  0  0  0  0
   24.2860   35.8620   16.9910 C   0  0  0  0  0  0  0  0  0  0  0  0
   22.8930   35.8420   16.5980 N   0  0  0  0  0  0  0  0  0  0  0  0
   21.8270   35.3810   17.3130 C   0  0  0  0  0  0  0  0  0  0  0  0
   20.7520   35.6020   16.4820 C   0  0  0  0  0  0  0  0  0  0  0  0
   19.3580   35.2880   16.7370 C   0  0  0  0  0  0  0  0  0  0  0  0
   18.8820   34.9900   18.0140 C   0  0  0  0  0  0  0  0  0  0  0  0
   17.5300   34.6850   18.2090 C   0  0  0  0  0  0  0  0  0  0  0  0
   16.6190   34.6590   17.1610 C   0  0  0  0  0  0  0  0  0  0  0  0
   15.3480   34.3620   17.4360 N   0  0  0  0  0  0  0  0  0  0  0  0
   14.4990   34.3590   16.4040 C   0  0  0  0  0  0  0  0  0  0  0  0
   14.8060   34.6080   15.1300 N   0  0  0  0  0  0  0  0  0  0  0  0
   16.0930   34.8900   14.8540 C   0  0  0  0  0  0  0  0  0  0  0  0
   16.4640   35.1460   13.5150 N   0  0  0  0  0  0  0  0  0  0  0  0
   16.8690   34.2740   12.4890 C   0  0  0  0  0  0  0  0  0  0  0  0
   16.0880   34.1850   11.3270 C   0  0  0  0  0  0  0  0  0  0  0  0
   16.4280   33.3200   10.2780 C   0  0  0  0  0  0  0  0  0  0  0  0
   17.5610   32.5110   10.3700 C   0  0  0  0  0  0  0  0  0  0  0  0
   17.9770   31.6370    9.4010 O   0  0  0  0  0  0  0  0  0  0  0  0
   17.6510   31.9370    8.0470 C   0  0  0  0  0  0  0  0  0  0  0  0
   16.7090   30.8700    7.5490 C   0  0  0  0  0  0  0  0  0  0  0  0
   15.3220   31.0130    7.7190 C   0  0  0  0  0  0  0  0  0  0  0  0
   14.4410   30.0350    7.2490 C   0  0  0  0  0  0  0  0  0  0  0  0
   14.9380   28.9090    6.5960 C   0  0  0  0  0  0  0  0  0  0  0  0
   16.3090   28.7730    6.4130 C   0  0  0  0  0  0  0  0  0  0  0  0
   16.7860   27.6940    5.7790 F   0  0  0  0  0  0  0  0  0  0  0  0
   17.1960   29.7410    6.8770 C   0  0  0  0  0  0  0  0  0  0  0  0
   18.3340   32.5780   11.5370 C   0  0  0  0  0  0  0  0  0  0  0  0
   19.7470   31.5950   11.7360 Cl  0  0  0  0  0  0  0  0  0  0  0  0
   17.9880   33.4440   12.5830 C   0  0  0  0  0  0  0  0  0  0  0  0
   17.0740   34.9460   15.8680 C   0  0  0  0  0  0  0  0  0  0  0  0
   18.4450   35.2690   15.6740 C   0  0  0  0  0  0  0  0  0  0  0  0
   21.1990   36.1850   15.3220 N   0  0  0  0  0  0  0  0  0  0  0  0
   22.5140   36.3300   15.4060 N   0  0  0  0  0  0  0  0  0  0  0  0
   22.3100   33.8080   13.7570 N   0  0  0  0  0  0  0  0  0  0  0  0
   21.3340   34.4630   12.9760 O   0  0  0  0  0  0  0  0  0  0  0  0
  1  2  2  0
  2  3  1  0
  3  4  1  0
  4  5  1  0
  5  6  1  0
  6  7  1  0
  7  8  1  0
  8  9  1  0
  9 10  1  0
 10 11  2  0
 11 12  1  0
 12 13  2  0
 13 14  1  0
 14 15  2  0
 15 16  1  0
 16 17  2  0
 17 18  1  0
 18 19  2  0
 19 20  1  0
 20 21  1  0
 21 22  2  0
 22 23  1  0
 23 24  2  0
 24 25  1  0
 25 26  1  0
 26 27  1  0
 27 28  2  0
 28 29  1  0
 29 30  2  0
 30 31  1  0
 31 32  1  0
 31 33  2  0
 24 34  1  0
 34 35  1  0
 34 36  2  0
 19 37  1  0
 37 38  2  0
 11 39  1  0
 39 40  2  0
  2 41  1  0
 41 42  1  0
 40  9  1  0
 38 12  1  0
 37 15  1  0
 36 21  1  0
 33 27  1  0
M  END
$$$$
