AOSOZAYYOFGVEG-UHFFFAOYSA-N_6N7A_m6
     RDKit          3D

 35 40  0  0  0  0  0  0  0  0999 V2000
   15.5610  -28.6820   27.0930 C   0  0  0  0  0  0  0  0  0  0  0  0
   14.5470  -28.7800   25.6350 S   0  0  0  0  0  0  0  0  0  0  0  0
   13.8300  -30.0360   25.6530 O   0  0  0  0  0  0  0  0  0  0  0  0
   15.3360  -28.3720   24.4920 O   0  0  0  0  0  0  0  0  0  0  0  0
   13.4240  -27.5500   25.9380 N   0  0  0  0  0  0  0  0  0  0  0  0
   12.1790  -27.7700   26.7490 C   0  0  0  0  0  0  0  0  0  0  0  0
   11.5110  -26.5910   25.9930 C   0  0  0  0  0  0  0  0  0  0  0  0
   11.5850  -25.2610   26.7320 C   0  0  0  0  0  0  0  0  0  0  0  0
   10.7820  -25.2930   27.9610 C   0  0  0  0  0  0  0  0  0  0  0  0
   10.1120  -25.3560   28.9040 N   0  0  0  0  0  0  0  0  0  0  0  0
   10.1300  -26.9300   25.5920 N   0  0  0  0  0  0  0  0  0  0  0  0
    9.4850  -28.0880   25.9070 C   0  0  0  0  0  0  0  0  0  0  0  0
    8.2680  -28.0110   25.2760 C   0  0  0  0  0  0  0  0  0  0  0  0
    8.2600  -26.7670   24.5840 C   0  0  0  0  0  0  0  0  0  0  0  0
    7.1700  -26.2560   23.7310 C   0  0  0  0  0  0  0  0  0  0  0  0
    7.3320  -24.9480   23.3940 N   0  0  0  0  0  0  0  0  0  0  0  0
    6.3880  -24.3620   22.6330 C   0  0  0  0  0  0  0  0  0  0  0  0
    6.6000  -22.9350   22.2890 C   0  0  0  0  0  0  0  0  0  0  0  0
    7.7600  -22.4670   21.5120 C   0  0  0  0  0  0  0  0  0  0  0  0
    7.8980  -21.1600   21.2330 C   0  0  0  0  0  0  0  0  0  0  0  0
    6.9360  -20.2660   21.6870 N   0  0  0  0  0  0  0  0  0  0  0  0
    6.8570  -18.9070   21.5260 C   0  0  0  0  0  0  0  0  0  0  0  0
    5.7040  -18.5290   22.1720 C   0  0  0  0  0  0  0  0  0  0  0  0
    5.0710  -19.6110   22.7290 N   0  0  0  0  0  0  0  0  0  0  0  0
    5.8260  -20.6480   22.4290 C   0  0  0  0  0  0  0  0  0  0  0  0
    5.6880  -22.0330   22.7310 C   0  0  0  0  0  0  0  0  0  0  0  0
    5.2700  -25.0470   22.1920 C   0  0  0  0  0  0  0  0  0  0  0  0
    5.1040  -26.3790   22.5130 C   0  0  0  0  0  0  0  0  0  0  0  0
    4.0050  -26.9910   22.0370 N   0  0  0  0  0  0  0  0  0  0  0  0
    3.8230  -28.2990   22.3160 C   0  0  0  0  0  0  0  0  0  0  0  0
    4.7080  -29.0480   23.0600 C   0  0  0  0  0  0  0  0  0  0  0  0
    5.8410  -28.4110   23.5510 C   0  0  0  0  0  0  0  0  0  0  0  0
    6.0710  -27.0340   23.2980 C   0  0  0  0  0  0  0  0  0  0  0  0
    9.4320  -26.1320   24.7690 N   0  0  0  0  0  0  0  0  0  0  0  0
   12.5710  -26.8880   24.8990 C   0  0  0  0  0  0  0  0  0  0  0  0
  1  2  1  0
  2  3  2  0
  2  4  2  0
  2  5  1  0
  5  6  1  0
  6  7  1  0
  7  8  1  0
  8  9  1  0
  9 10  3  0
  7 11  1  0
 11 12  1  0
 12 13  2  0
 13 14  1  0
 14 15  1  0
 15 16  2  0
 16 17  1  0
 17 18  1  0
 18 19  1  0
 19 20  2  0
 20 21  1  0
 21 22  1  0
 22 23  2  0
 23 24  1  0
 24 25  2  0
 25 26  1  0
 17 27  2  0
 27 28  1  0
 28 29  2  0
 29 30  1  0
 30 31  2  0
 31 32  1  0
 32 33  2  0
 14 34  2  0
  7 35  1  0
 35  5  1  0
 34 11  1  0
 33 15  1  0
 26 18  2  0
 33 28  1  0
 25 21  1  0
M  END
$$$$
