AXGABLVKANFJCV-UHFFFAOYSA-N_4EY7_m3
     RDKit          3D

 28 31  0  0  0  0  0  0  0  0999 V2000
  -23.9900  -40.9720   25.9540 C   0  0  0  0  0  0  0  0  0  0  0  0
  -22.8850  -40.1270   25.6580 O   0  0  0  0  0  0  0  0  0  0  0  0
  -21.6390  -40.6810   25.7570 C   0  0  0  0  0  0  0  0  0  0  0  0
  -20.9970  -41.0560   26.9360 C   0  0  0  0  0  0  0  0  0  0  0  0
  -19.7130  -41.6150   26.8900 C   0  0  0  0  0  0  0  0  0  0  0  0
  -19.0520  -41.8160   25.6700 C   0  0  0  0  0  0  0  0  0  0  0  0
  -17.6970  -42.3980   25.6510 C   0  0  0  0  0  0  0  0  0  0  0  0
  -17.0310  -42.5960   24.5030 C   0  0  0  0  0  0  0  0  0  0  0  0
  -15.6850  -43.1890   24.5440 C   0  0  0  0  0  0  0  0  0  0  0  0
  -15.0440  -43.3780   23.5190 O   0  0  0  0  0  0  0  0  0  0  0  0
  -15.1610  -43.5350   25.8740 C   0  0  0  0  0  0  0  0  0  0  0  0
  -13.8930  -44.1000   26.0210 C   0  0  0  0  0  0  0  0  0  0  0  0
  -13.4190  -44.4200   27.2990 C   0  0  0  0  0  0  0  0  0  0  0  0
  -14.2110  -44.1760   28.4230 C   0  0  0  0  0  0  0  0  0  0  0  0
  -13.8750  -44.4340   29.7230 O   0  0  0  0  0  0  0  0  0  0  0  0
  -12.7230  -45.2390   29.9930 C   0  0  0  0  0  0  0  0  0  0  0  0
  -11.6730  -44.4410   30.7850 C   0  0  0  0  0  0  0  0  0  0  0  0
  -10.4280  -44.1870   30.0370 N   0  0  0  0  0  0  0  0  0  0  0  0
   -9.3100  -43.9480   30.9800 C   0  0  0  0  0  0  0  0  0  0  0  0
   -8.0060  -43.6180   30.2390 C   0  0  0  0  0  0  0  0  0  0  0  0
   -8.1680  -42.4660   29.4010 O   0  0  0  0  0  0  0  0  0  0  0  0
   -9.2100  -42.7000   28.4460 C   0  0  0  0  0  0  0  0  0  0  0  0
  -10.5450  -43.0140   29.1430 C   0  0  0  0  0  0  0  0  0  0  0  0
  -15.4790  -43.6070   28.2600 C   0  0  0  0  0  0  0  0  0  0  0  0
  -15.9530  -43.2880   26.9880 C   0  0  0  0  0  0  0  0  0  0  0  0
  -17.2060  -42.7340   26.9040 O   0  0  0  0  0  0  0  0  0  0  0  0
  -19.7030  -41.4270   24.4920 C   0  0  0  0  0  0  0  0  0  0  0  0
  -20.9850  -40.8680   24.5380 C   0  0  0  0  0  0  0  0  0  0  0  0
  1  2  1  0
  2  3  1  0
  3  4  2  0
  4  5  1  0
  5  6  2  0
  6  7  1  0
  7  8  2  0
  8  9  1  0
  9 10  2  0
  9 11  1  0
 11 12  2  0
 12 13  1  0
 13 14  2  0
 14 15  1  0
 15 16  1  0
 16 17  1  0
 17 18  1  0
 18 19  1  0
 19 20  1  0
 20 21  1  0
 21 22  1  0
 22 23  1  0
 14 24  1  0
 24 25  2  0
 25 26  1  0
  6 27  1  0
 27 28  2  0
 28  3  1  0
 26  7  1  0
 25 11  1  0
 23 18  1  0
M  END
$$$$
