AXSJTNLXZJWIFL-UHFFFAOYSA-N_4BDS_m1
     RDKit          3D

 22 25  0  0  0  0  0  0  0  0999 V2000
  133.2500  118.7240   41.3440 C   0  0  0  0  0  0  0  0  0  0  0  0
  133.6760  117.3290   41.5610 N   0  0  0  0  0  0  0  0  0  0  0  0
  132.8680  116.4880   42.2340 C   0  0  0  0  0  0  0  0  0  0  0  0
  133.2370  115.1710   42.4790 C   0  0  0  0  0  0  0  0  0  0  0  0
  134.4840  114.7360   42.0100 C   0  0  0  0  0  0  0  0  0  0  0  0
  135.1910  113.4990   42.0940 C   0  0  0  0  0  0  0  0  0  0  0  0
  134.8970  112.2480   42.6770 C   0  0  0  0  0  0  0  0  0  0  0  0
  135.8290  111.2100   42.5950 C   0  0  0  0  0  0  0  0  0  0  0  0
  137.0430  111.4020   41.9470 C   0  0  0  0  0  0  0  0  0  0  0  0
  137.3590  112.6310   41.3610 C   0  0  0  0  0  0  0  0  0  0  0  0
  136.4160  113.6690   41.4450 C   0  0  0  0  0  0  0  0  0  0  0  0
  136.4470  114.9680   40.9720 N   0  0  0  0  0  0  0  0  0  0  0  0
  137.5680  115.5420   40.2310 C   0  0  0  0  0  0  0  0  0  0  0  0
  138.3100  116.6370   41.0050 C   0  0  0  0  0  0  0  0  0  0  0  0
  139.6510  116.1780   41.5270 C   0  0  0  0  0  0  0  0  0  0  0  0
  140.2060  114.9650   41.0940 C   0  0  0  0  0  0  0  0  0  0  0  0
  141.4590  114.5570   41.5550 C   0  0  0  0  0  0  0  0  0  0  0  0
  142.1680  115.3550   42.4510 C   0  0  0  0  0  0  0  0  0  0  0  0
  141.6230  116.5590   42.8920 C   0  0  0  0  0  0  0  0  0  0  0  0
  140.3700  116.9700   42.4350 C   0  0  0  0  0  0  0  0  0  0  0  0
  135.2800  115.6340   41.3030 C   0  0  0  0  0  0  0  0  0  0  0  0
  134.8670  116.9410   41.0680 C   0  0  0  0  0  0  0  0  0  0  0  0
  1  2  1  0
  2  3  2  0
  3  4  1  0
  4  5  2  0
  5  6  1  0
  6  7  2  0
  7  8  1  0
  8  9  2  0
  9 10  1  0
 10 11  2  0
 11 12  1  0
 12 13  1  0
 13 14  1  0
 14 15  1  0
 15 16  2  0
 16 17  1  0
 17 18  2  0
 18 19  1  0
 19 20  2  0
 12 21  1  0
 21 22  2  0
 22  2  1  0
 21  5  1  0
 11  6  1  0
 20 15  1  0
M  CHG  1   2   1
M  END
$$$$
