AXSJTNLXZJWIFL-UHFFFAOYSA-N_4EY7_m3
     RDKit          3D

 22 25  0  0  0  0  0  0  0  0999 V2000
   -6.9800  -45.5090   31.4770 C   0  0  0  0  0  0  0  0  0  0  0  0
   -8.2570  -44.8510   31.8110 N   0  0  0  0  0  0  0  0  0  0  0  0
   -8.2520  -43.7710   32.6150 C   0  0  0  0  0  0  0  0  0  0  0  0
   -9.4330  -43.1310   32.9730 C   0  0  0  0  0  0  0  0  0  0  0  0
  -10.6400  -43.6440   32.4760 C   0  0  0  0  0  0  0  0  0  0  0  0
  -12.0090  -43.2780   32.6460 C   0  0  0  0  0  0  0  0  0  0  0  0
  -12.6610  -42.2590   33.3720 C   0  0  0  0  0  0  0  0  0  0  0  0
  -14.0550  -42.1710   33.3420 C   0  0  0  0  0  0  0  0  0  0  0  0
  -14.8030  -43.0810   32.6050 C   0  0  0  0  0  0  0  0  0  0  0  0
  -14.1820  -44.1000   31.8770 C   0  0  0  0  0  0  0  0  0  0  0  0
  -12.7790  -44.1800   31.9090 C   0  0  0  0  0  0  0  0  0  0  0  0
  -11.9040  -45.0610   31.3030 N   0  0  0  0  0  0  0  0  0  0  0  0
  -12.3190  -46.1650   30.4400 C   0  0  0  0  0  0  0  0  0  0  0  0
  -11.6810  -46.1210   29.0480 C   0  0  0  0  0  0  0  0  0  0  0  0
  -12.3130  -45.0860   28.1470 C   0  0  0  0  0  0  0  0  0  0  0  0
  -11.7530  -43.8060   28.0320 C   0  0  0  0  0  0  0  0  0  0  0  0
  -12.3210  -42.8610   27.1760 C   0  0  0  0  0  0  0  0  0  0  0  0
  -13.4520  -43.1860   26.4290 C   0  0  0  0  0  0  0  0  0  0  0  0
  -14.0190  -44.4540   26.5400 C   0  0  0  0  0  0  0  0  0  0  0  0
  -13.4550  -45.4000   27.3960 C   0  0  0  0  0  0  0  0  0  0  0  0
  -10.5960  -44.7510   31.6330 C   0  0  0  0  0  0  0  0  0  0  0  0
   -9.3910  -45.3550   31.2900 C   0  0  0  0  0  0  0  0  0  0  0  0
  1  2  1  0
  2  3  2  0
  3  4  1  0
  4  5  2  0
  5  6  1  0
  6  7  2  0
  7  8  1  0
  8  9  2  0
  9 10  1  0
 10 11  2  0
 11 12  1  0
 12 13  1  0
 13 14  1  0
 14 15  1  0
 15 16  2  0
 16 17  1  0
 17 18  2  0
 18 19  1  0
 19 20  2  0
 12 21  1  0
 21 22  2  0
 22  2  1  0
 21  5  1  0
 11  6  1  0
 20 15  1  0
M  CHG  1   2   1
M  END
$$$$
