AXURMJQZEHWANG-MRXNPFEDSA-N_6N7A_m2
     RDKit          3D

 40 44  0  0  0  0  0  0  0  0999 V2000
    6.5510  -16.9770   21.0110 C   0  0  0  0  0  0  0  0  0  0  0  0
    5.5140  -18.0510   21.3640 C   0  0  2  0  0  0  0  0  0  0  0  0
    6.1320  -19.4720   21.2540 C   0  0  0  0  0  0  0  0  0  0  0  0
    7.2310  -19.7490   21.7300 O   0  0  0  0  0  0  0  0  0  0  0  0
    5.2700  -20.3450   20.6090 N   0  0  0  0  0  0  0  0  0  0  0  0
    5.3190  -21.7520   20.5290 C   0  0  0  0  0  0  0  0  0  0  0  0
    5.1410  -22.3130   19.2550 C   0  0  0  0  0  0  0  0  0  0  0  0
    5.0960  -23.6930   19.0650 C   0  0  0  0  0  0  0  0  0  0  0  0
    5.2060  -24.5650   20.1520 C   0  0  0  0  0  0  0  0  0  0  0  0
    5.4100  -24.0430   21.4450 C   0  0  0  0  0  0  0  0  0  0  0  0
    5.5740  -24.6440   22.7440 C   0  0  0  0  0  0  0  0  0  0  0  0
    5.5930  -26.0570   23.1040 C   0  0  0  0  0  0  0  0  0  0  0  0
    6.6880  -26.4170   23.8280 N   0  0  0  0  0  0  0  0  0  0  0  0
    6.8150  -27.6980   24.1960 C   0  0  0  0  0  0  0  0  0  0  0  0
    7.9620  -27.9940   24.9180 N   0  0  0  0  0  0  0  0  0  0  0  0
    9.1100  -27.2730   25.2800 C   0  0  0  0  0  0  0  0  0  0  0  0
    9.4380  -26.0090   24.7760 C   0  0  0  0  0  0  0  0  0  0  0  0
   10.6040  -25.3510   25.1790 C   0  0  0  0  0  0  0  0  0  0  0  0
   11.4610  -25.9370   26.1110 C   0  0  0  0  0  0  0  0  0  0  0  0
   11.1420  -27.1940   26.6220 C   0  0  0  0  0  0  0  0  0  0  0  0
   12.1780  -27.9520   27.8290 S   0  0  0  0  0  0  0  0  0  0  0  0
   13.3350  -26.6920   28.2910 C   0  0  0  0  0  0  0  0  0  0  0  0
   12.8970  -29.0290   27.1760 O   0  0  0  0  0  0  0  0  0  0  0  0
   11.3480  -28.2350   28.9890 O   0  0  0  0  0  0  0  0  0  0  0  0
    9.9880  -27.8540   26.2110 C   0  0  0  0  0  0  0  0  0  0  0  0
    9.6970  -29.0740   26.6880 F   0  0  0  0  0  0  0  0  0  0  0  0
    5.9100  -28.6370   23.8910 N   0  0  0  0  0  0  0  0  0  0  0  0
    4.8280  -28.2490   23.1810 C   0  0  0  0  0  0  0  0  0  0  0  0
    4.6090  -26.9600   22.7460 C   0  0  0  0  0  0  0  0  0  0  0  0
    3.2130  -26.6220   21.7990 Cl  0  0  0  0  0  0  0  0  0  0  0  0
    5.8180  -23.6120   23.6270 C   0  0  0  0  0  0  0  0  0  0  0  0
    5.7120  -22.4310   22.9420 N   0  0  0  0  0  0  0  0  0  0  0  0
    5.4740  -22.6520   21.6020 C   0  0  0  0  0  0  0  0  0  0  0  0
    4.2220  -18.0110   20.6210 N   0  0  0  0  0  0  0  0  0  0  0  0
    4.2340  -17.0790   19.4760 C   0  0  0  0  0  0  0  0  0  0  0  0
    2.8620  -16.9840   18.7540 C   0  0  0  0  0  0  0  0  0  0  0  0
    1.7220  -16.6660   19.6350 N   0  0  0  0  0  0  0  0  0  0  0  0
    1.7400  -15.2700   20.0720 C   0  0  0  0  0  0  0  0  0  0  0  0
    1.7270  -17.5980   20.7790 C   0  0  0  0  0  0  0  0  0  0  0  0
    3.0860  -17.7220   21.5210 C   0  0  0  0  0  0  0  0  0  0  0  0
  2  1  1  6
  2  3  1  0
  3  4  2  0
  3  5  1  0
  5  6  1  0
  6  7  2  0
  7  8  1  0
  8  9  2  0
  9 10  1  0
 10 11  1  0
 11 12  1  0
 12 13  2  0
 13 14  1  0
 14 15  1  0
 15 16  1  0
 16 17  2  0
 17 18  1  0
 18 19  2  0
 19 20  1  0
 20 21  1  0
 21 22  1  0
 21 23  2  0
 21 24  2  0
 20 25  2  0
 25 26  1  0
 14 27  2  0
 27 28  1  0
 28 29  2  0
 29 30  1  0
 11 31  2  0
 31 32  1  0
 32 33  1  0
  2 34  1  0
 34 35  1  0
 35 36  1  0
 36 37  1  0
 37 38  1  0
 37 39  1  0
 39 40  1  0
 33  6  1  0
 40 34  1  0
 33 10  2  0
 29 12  1  0
 25 16  1  0
M  END
$$$$
