AXURMJQZEHWANG-MRXNPFEDSA-N_6N7A_m3
     RDKit          3D

 40 44  0  0  0  0  0  0  0  0999 V2000
    2.1010  -15.8530   16.8820 C   0  0  0  0  0  0  0  0  0  0  0  0
    1.6840  -15.7520   18.3550 C   0  0  2  0  0  0  0  0  0  0  0  0
    1.9010  -17.1060   19.0840 C   0  0  0  0  0  0  0  0  0  0  0  0
    1.3720  -18.1490   18.7050 O   0  0  0  0  0  0  0  0  0  0  0  0
    2.7810  -16.9680   20.1470 N   0  0  0  0  0  0  0  0  0  0  0  0
    3.4420  -17.9650   20.8940 C   0  0  0  0  0  0  0  0  0  0  0  0
    2.8800  -18.2890   22.1380 C   0  0  0  0  0  0  0  0  0  0  0  0
    3.4860  -19.2040   22.9970 C   0  0  0  0  0  0  0  0  0  0  0  0
    4.6930  -19.8160   22.6480 C   0  0  0  0  0  0  0  0  0  0  0  0
    5.2790  -19.5350   21.3960 C   0  0  0  0  0  0  0  0  0  0  0  0
    6.4760  -19.9900   20.7360 C   0  0  0  0  0  0  0  0  0  0  0  0
    7.4750  -20.9440   21.2050 C   0  0  0  0  0  0  0  0  0  0  0  0
    6.9390  -22.1000   21.6800 N   0  0  0  0  0  0  0  0  0  0  0  0
    7.7690  -23.0390   22.1520 C   0  0  0  0  0  0  0  0  0  0  0  0
    7.1520  -24.1840   22.6340 N   0  0  0  0  0  0  0  0  0  0  0  0
    5.9940  -24.8970   22.2870 C   0  0  0  0  0  0  0  0  0  0  0  0
    4.8840  -24.3350   21.6470 C   0  0  0  0  0  0  0  0  0  0  0  0
    3.7600  -25.1070   21.3370 C   0  0  0  0  0  0  0  0  0  0  0  0
    3.7290  -26.4660   21.6470 C   0  0  0  0  0  0  0  0  0  0  0  0
    4.8300  -27.0380   22.2810 C   0  0  0  0  0  0  0  0  0  0  0  0
    4.8470  -28.7610   22.6540 S   0  0  0  0  0  0  0  0  0  0  0  0
    3.4020  -29.4110   21.8610 C   0  0  0  0  0  0  0  0  0  0  0  0
    4.6950  -28.9000   24.0900 O   0  0  0  0  0  0  0  0  0  0  0  0
    6.0090  -29.3310   21.9900 O   0  0  0  0  0  0  0  0  0  0  0  0
    5.9430  -26.2670   22.6010 C   0  0  0  0  0  0  0  0  0  0  0  0
    6.9920  -26.8160   23.2320 F   0  0  0  0  0  0  0  0  0  0  0  0
    9.1000  -22.8930   22.1710 N   0  0  0  0  0  0  0  0  0  0  0  0
    9.6050  -21.7390   21.6830 C   0  0  0  0  0  0  0  0  0  0  0  0
    8.8380  -20.7090   21.1840 C   0  0  0  0  0  0  0  0  0  0  0  0
    9.6150  -19.2700   20.6490 Cl  0  0  0  0  0  0  0  0  0  0  0  0
    6.4750  -19.4160   19.4810 C   0  0  0  0  0  0  0  0  0  0  0  0
    5.3980  -18.5760   19.3980 N   0  0  0  0  0  0  0  0  0  0  0  0
    4.6350  -18.6280   20.5450 C   0  0  0  0  0  0  0  0  0  0  0  0
    0.3090  -15.2510   18.6330 N   0  0  0  0  0  0  0  0  0  0  0  0
   -0.2740  -15.8000   19.8730 C   0  0  0  0  0  0  0  0  0  0  0  0
   -1.7360  -15.3340   20.1170 C   0  0  0  0  0  0  0  0  0  0  0  0
   -2.6570  -15.5780   18.9890 N   0  0  0  0  0  0  0  0  0  0  0  0
   -2.9900  -16.9960   18.8510 C   0  0  0  0  0  0  0  0  0  0  0  0
   -2.0580  -15.0330   17.7560 C   0  0  0  0  0  0  0  0  0  0  0  0
   -0.5940  -15.4740   17.4850 C   0  0  0  0  0  0  0  0  0  0  0  0
  2  1  1  6
  2  3  1  0
  3  4  2  0
  3  5  1  0
  5  6  1  0
  6  7  2  0
  7  8  1  0
  8  9  2  0
  9 10  1  0
 10 11  1  0
 11 12  1  0
 12 13  2  0
 13 14  1  0
 14 15  1  0
 15 16  1  0
 16 17  2  0
 17 18  1  0
 18 19  2  0
 19 20  1  0
 20 21  1  0
 21 22  1  0
 21 23  2  0
 21 24  2  0
 20 25  2  0
 25 26  1  0
 14 27  2  0
 27 28  1  0
 28 29  2  0
 29 30  1  0
 11 31  2  0
 31 32  1  0
 32 33  1  0
  2 34  1  0
 34 35  1  0
 35 36  1  0
 36 37  1  0
 37 38  1  0
 37 39  1  0
 39 40  1  0
 33  6  1  0
 40 34  1  0
 33 10  2  0
 29 12  1  0
 25 16  1  0
M  END
$$$$
