AXVWVFHQMYQWLK-UHFFFAOYSA-N_3POZ_m1
     RDKit          3D

 44 47  0  0  0  0  0  0  0  0999 V2000
   20.7260   31.5500   13.6570 N   0  0  0  0  0  0  0  0  0  0  0  0
   20.9390   33.0600   14.2260 P   0  0  1  0  0  0  0  0  0  0  0  0
   19.8220   34.0110   13.9390 O   0  0  0  0  0  0  0  0  0  0  0  0
   21.1420   32.8340   15.8080 O   0  0  0  0  0  0  0  0  0  0  0  0
   20.2170   33.4380   16.6970 C   0  0  0  0  0  0  0  0  0  0  0  0
   20.9840   34.2260   17.7510 C   0  0  0  0  0  0  0  0  0  0  0  0
   20.2750   35.5330   18.1110 C   0  0  0  0  0  0  0  0  0  0  0  0
   18.8240   35.3060   18.4610 C   0  0  0  0  0  0  0  0  0  0  0  0
   18.4080   34.4660   19.2470 O   0  0  0  0  0  0  0  0  0  0  0  0
   18.0540   36.2030   17.7250 O   0  0  0  0  0  0  0  0  0  0  0  0
   16.9420   35.6480   17.0870 C   0  0  0  0  0  0  0  0  0  0  0  0
   15.7330   35.6640   17.7640 C   0  0  0  0  0  0  0  0  0  0  0  0
   14.5980   35.1520   17.1320 C   0  0  0  0  0  0  0  0  0  0  0  0
   14.6400   34.6470   15.8380 C   0  0  0  0  0  0  0  0  0  0  0  0
   13.5100   34.1700   15.3120 N   0  0  0  0  0  0  0  0  0  0  0  0
   13.5850   33.6860   14.0700 C   0  0  0  0  0  0  0  0  0  0  0  0
   14.6780   33.6480   13.3030 N   0  0  0  0  0  0  0  0  0  0  0  0
   15.8110   34.1470   13.8280 C   0  0  0  0  0  0  0  0  0  0  0  0
   16.9820   34.1450   13.0360 N   0  0  0  0  0  0  0  0  0  0  0  0
   17.1760   33.7820   11.6920 C   0  0  0  0  0  0  0  0  0  0  0  0
   18.0790   32.7540   11.3880 C   0  0  0  0  0  0  0  0  0  0  0  0
   18.2960   32.3330   10.0690 C   0  0  0  0  0  0  0  0  0  0  0  0
   17.6030   32.9310    9.0150 C   0  0  0  0  0  0  0  0  0  0  0  0
   17.7410   32.5870    7.6960 O   0  0  0  0  0  0  0  0  0  0  0  0
   18.2990   31.3110    7.3960 C   0  0  0  0  0  0  0  0  0  0  0  0
   17.1670   30.3680    7.0780 C   0  0  0  0  0  0  0  0  0  0  0  0
   17.4280   29.1210    6.4820 C   0  0  0  0  0  0  0  0  0  0  0  0
   16.3830   28.2460    6.1760 C   0  0  0  0  0  0  0  0  0  0  0  0
   15.0670   28.6100    6.4530 C   0  0  0  0  0  0  0  0  0  0  0  0
   14.8070   29.8480    7.0280 C   0  0  0  0  0  0  0  0  0  0  0  0
   13.5410   30.2000    7.2900 F   0  0  0  0  0  0  0  0  0  0  0  0
   15.8380   30.7280    7.3380 C   0  0  0  0  0  0  0  0  0  0  0  0
   16.6840   33.9460    9.3130 C   0  0  0  0  0  0  0  0  0  0  0  0
   15.7740   34.7270    8.0640 Cl  0  0  0  0  0  0  0  0  0  0  0  0
   16.4730   34.3610   10.6330 C   0  0  0  0  0  0  0  0  0  0  0  0
   15.8600   34.6630   15.1400 C   0  0  0  0  0  0  0  0  0  0  0  0
   17.0190   35.1700   15.7820 C   0  0  0  0  0  0  0  0  0  0  0  0
   22.4090   33.5070   13.6430 N   0  0  0  0  0  0  0  0  0  0  0  0
   23.0180   32.6390   12.6140 C   0  0  0  0  0  0  0  0  0  0  0  0
   24.5510   32.6490   12.6100 C   0  0  0  0  0  0  0  0  0  0  0  0
   25.1780   31.0100   12.2830 Cl  0  0  0  0  0  0  0  0  0  0  0  0
   22.5710   34.9260   13.2690 C   0  0  0  0  0  0  0  0  0  0  0  0
   22.8620   35.8730   14.4380 C   0  0  0  0  0  0  0  0  0  0  0  0
   21.4560   36.9290   14.7400 Cl  0  0  0  0  0  0  0  0  0  0  0  0
  2  1  1  6
  2  3  2  0
  2  4  1  0
  4  5  1  0
  5  6  1  0
  6  7  1  0
  7  8  1  0
  8  9  2  0
  8 10  1  0
 10 11  1  0
 11 12  2  0
 12 13  1  0
 13 14  2  0
 14 15  1  0
 15 16  2  0
 16 17  1  0
 17 18  2  0
 18 19  1  0
 19 20  1  0
 20 21  2  0
 21 22  1  0
 22 23  2  0
 23 24  1  0
 24 25  1  0
 25 26  1  0
 26 27  2  0
 27 28  1  0
 28 29  2  0
 29 30  1  0
 30 31  1  0
 30 32  2  0
 23 33  1  0
 33 34  1  0
 33 35  2  0
 18 36  1  0
 36 37  2  0
  2 38  1  0
 38 39  1  0
 39 40  1  0
 40 41  1  0
 38 42  1  0
 42 43  1  0
 43 44  1  0
 37 11  1  0
 36 14  1  0
 35 20  1  0
 32 26  1  0
M  END
$$$$
