AXVWVFHQMYQWLK-UHFFFAOYSA-N_3RCD_m6
     RDKit          3D

 44 47  0  0  0  0  0  0  0  0999 V2000
   14.8270    7.7220   21.5440 N   0  0  0  0  0  0  0  0  0  0  0  0
   15.3890    6.2770   22.0400 P   0  0  1  0  0  0  0  0  0  0  0  0
   16.0570    5.4570   20.9840 O   0  0  0  0  0  0  0  0  0  0  0  0
   16.4050    6.6630   23.2300 O   0  0  0  0  0  0  0  0  0  0  0  0
   17.7650    6.8960   22.9030 C   0  0  0  0  0  0  0  0  0  0  0  0
   18.6470    6.1060   23.8610 C   0  0  0  0  0  0  0  0  0  0  0  0
   19.0440    4.7480   23.2780 C   0  0  0  0  0  0  0  0  0  0  0  0
   17.9750    3.7060   23.5050 C   0  0  0  0  0  0  0  0  0  0  0  0
   17.5210    2.9600   22.6490 O   0  0  0  0  0  0  0  0  0  0  0  0
   17.5950    3.7580   24.8440 O   0  0  0  0  0  0  0  0  0  0  0  0
   17.3050    2.5220   25.4280 C   0  0  0  0  0  0  0  0  0  0  0  0
   18.1600    1.4650   25.1610 C   0  0  0  0  0  0  0  0  0  0  0  0
   17.9160    0.2300   25.7650 C   0  0  0  0  0  0  0  0  0  0  0  0
   16.8550    0.0350   26.6420 C   0  0  0  0  0  0  0  0  0  0  0  0
   16.6900   -1.1790   27.1680 N   0  0  0  0  0  0  0  0  0  0  0  0
   15.6570   -1.3360   28.0010 C   0  0  0  0  0  0  0  0  0  0  0  0
   14.7880   -0.3890   28.3650 N   0  0  0  0  0  0  0  0  0  0  0  0
   14.9680    0.8390   27.8480 C   0  0  0  0  0  0  0  0  0  0  0  0
   14.0810    1.8710   28.2300 N   0  0  0  0  0  0  0  0  0  0  0  0
   12.9820    1.8540   29.1050 C   0  0  0  0  0  0  0  0  0  0  0  0
   11.7050    2.1390   28.6000 C   0  0  0  0  0  0  0  0  0  0  0  0
   10.5690    2.1140   29.4200 C   0  0  0  0  0  0  0  0  0  0  0  0
   10.6820    1.7930   30.7740 C   0  0  0  0  0  0  0  0  0  0  0  0
    9.6340    1.7370   31.6530 O   0  0  0  0  0  0  0  0  0  0  0  0
    8.3140    1.7510   31.1170 C   0  0  0  0  0  0  0  0  0  0  0  0
    7.7660    3.1490   31.2600 C   0  0  0  0  0  0  0  0  0  0  0  0
    7.8690    3.8290   32.4860 C   0  0  0  0  0  0  0  0  0  0  0  0
    7.3560    5.1210   32.6290 C   0  0  0  0  0  0  0  0  0  0  0  0
    6.7280    5.7430   31.5520 C   0  0  0  0  0  0  0  0  0  0  0  0
    6.6120    5.0660   30.3440 C   0  0  0  0  0  0  0  0  0  0  0  0
    6.0040    5.6610   29.3100 F   0  0  0  0  0  0  0  0  0  0  0  0
    7.1200    3.7800   30.1890 C   0  0  0  0  0  0  0  0  0  0  0  0
   11.9530    1.4880   31.2820 C   0  0  0  0  0  0  0  0  0  0  0  0
   12.1760    1.0670   32.9460 Cl  0  0  0  0  0  0  0  0  0  0  0  0
   13.0840    1.5150   30.4570 C   0  0  0  0  0  0  0  0  0  0  0  0
   16.0090    1.1180   26.9380 C   0  0  0  0  0  0  0  0  0  0  0  0
   16.2460    2.3720   26.3170 C   0  0  0  0  0  0  0  0  0  0  0  0
   14.0960    5.5680   22.7650 N   0  0  0  0  0  0  0  0  0  0  0  0
   14.3070    4.2330   23.3640 C   0  0  0  0  0  0  0  0  0  0  0  0
   13.0600    3.3420   23.3680 C   0  0  0  0  0  0  0  0  0  0  0  0
   12.8300    2.6100   24.9790 Cl  0  0  0  0  0  0  0  0  0  0  0  0
   13.3020    6.4130   23.6790 C   0  0  0  0  0  0  0  0  0  0  0  0
   13.6290    6.2400   25.1670 C   0  0  0  0  0  0  0  0  0  0  0  0
   12.1270    6.0710   26.1130 Cl  0  0  0  0  0  0  0  0  0  0  0  0
  2  1  1  6
  2  3  2  0
  2  4  1  0
  4  5  1  0
  5  6  1  0
  6  7  1  0
  7  8  1  0
  8  9  2  0
  8 10  1  0
 10 11  1  0
 11 12  2  0
 12 13  1  0
 13 14  2  0
 14 15  1  0
 15 16  2  0
 16 17  1  0
 17 18  2  0
 18 19  1  0
 19 20  1  0
 20 21  2  0
 21 22  1  0
 22 23  2  0
 23 24  1  0
 24 25  1  0
 25 26  1  0
 26 27  2  0
 27 28  1  0
 28 29  2  0
 29 30  1  0
 30 31  1  0
 30 32  2  0
 23 33  1  0
 33 34  1  0
 33 35  2  0
 18 36  1  0
 36 37  2  0
  2 38  1  0
 38 39  1  0
 39 40  1  0
 40 41  1  0
 38 42  1  0
 42 43  1  0
 43 44  1  0
 37 11  1  0
 36 14  1  0
 35 20  1  0
 32 26  1  0
M  END
$$$$
