BCZXWVFNOOINGV-UHFFFAOYSA-N_9V8H_m8
     RDKit          3D

 30 31  0  0  0  0  0  0  0  0999 V2000
   -3.2380   -6.9960  -19.5400 C   0  0  0  0  0  0  0  0  0  0  0  0
   -3.3190   -5.6140  -20.1720 C   0  0  0  0  0  0  0  0  0  0  0  0
   -4.7660   -5.1410  -20.3790 C   0  0  1  0  0  0  0  0  0  0  0  0
   -5.7130   -5.8240  -19.3700 C   0  0  0  0  0  0  0  0  0  0  0  0
   -6.8570   -6.5540  -20.0380 C   0  0  0  0  0  0  0  0  0  0  0  0
   -8.1760   -6.3760  -19.6180 C   0  0  0  0  0  0  0  0  0  0  0  0
   -9.2100   -7.1340  -20.1820 C   0  0  0  0  0  0  0  0  0  0  0  0
   -8.9370   -8.1060  -21.1520 C   0  0  0  0  0  0  0  0  0  0  0  0
   -9.8760   -8.9250  -21.7260 O   0  0  0  0  0  0  0  0  0  0  0  0
  -11.0770   -9.1440  -20.9990 C   0  0  0  0  0  0  0  0  0  0  0  0
   -7.6130   -8.2940  -21.5820 C   0  0  0  0  0  0  0  0  0  0  0  0
   -7.2260   -9.4020  -22.5290 C   0  0  0  0  0  0  0  0  0  0  0  0
   -7.5520   -9.0580  -23.8980 N   0  0  0  0  0  0  0  0  0  0  0  0
   -7.0930   -9.7710  -24.9800 C   0  0  0  0  0  0  0  0  0  0  0  0
   -6.3430  -10.7410  -24.9240 O   0  0  0  0  0  0  0  0  0  0  0  0
   -7.6260   -9.3270  -26.2920 C   0  0  0  0  0  0  0  0  0  0  0  0
   -8.9670   -8.9650  -26.4410 C   0  0  0  0  0  0  0  0  0  0  0  0
   -9.4370   -8.5580  -27.6910 C   0  0  0  0  0  0  0  0  0  0  0  0
   -8.5810   -8.5160  -28.8000 C   0  0  0  0  0  0  0  0  0  0  0  0
   -9.1810   -8.1060  -29.9560 O   0  0  0  0  0  0  0  0  0  0  0  0
   -9.4070   -9.0770  -30.9640 C   0  0  0  0  0  0  0  0  0  0  0  0
  -10.5360   -8.7510  -31.6310 F   0  0  0  0  0  0  0  0  0  0  0  0
   -8.3890   -9.1050  -31.8500 F   0  0  0  0  0  0  0  0  0  0  0  0
   -9.5750  -10.3040  -30.4280 F   0  0  0  0  0  0  0  0  0  0  0  0
   -7.2390   -8.8680  -28.6400 C   0  0  0  0  0  0  0  0  0  0  0  0
   -6.7600   -9.2650  -27.3870 C   0  0  0  0  0  0  0  0  0  0  0  0
   -6.5960   -7.4870  -21.0480 C   0  0  0  0  0  0  0  0  0  0  0  0
   -4.8570   -3.6390  -20.1970 C   0  0  0  0  0  0  0  0  0  0  0  0
   -4.5970   -3.0290  -19.1720 O   0  0  0  0  0  0  0  0  0  0  0  0
   -5.3570   -3.0240  -21.2860 O   0  0  0  0  0  0  0  0  0  0  0  0
  1  2  1  0
  3  2  1  1
  3  4  1  0
  4  5  1  0
  5  6  2  0
  6  7  1  0
  7  8  2  0
  8  9  1  0
  9 10  1  0
  8 11  1  0
 11 12  1  0
 12 13  1  0
 13 14  1  0
 14 15  2  0
 14 16  1  0
 16 17  2  0
 17 18  1  0
 18 19  2  0
 19 20  1  0
 20 21  1  0
 21 22  1  0
 21 23  1  0
 21 24  1  0
 19 25  1  0
 25 26  2  0
 11 27  2  0
  3 28  1  0
 28 29  2  0
 28 30  1  0
 27  5  1  0
 26 16  1  0
M  END
$$$$
