BCZXWVFNOOINGV-UHFFFAOYSA-N_5U3Q_m9
     RDKit          3D

 30 31  0  0  0  0  0  0  0  0999 V2000
   39.2420  -39.2410  109.4280 C   0  0  0  0  0  0  0  0  0  0  0  0
   37.7500  -39.0390  109.6520 C   0  0  0  0  0  0  0  0  0  0  0  0
   37.1290  -38.0520  108.6510 C   0  0  1  0  0  0  0  0  0  0  0  0
   36.1520  -38.7800  107.7030 C   0  0  0  0  0  0  0  0  0  0  0  0
   36.2970  -38.3430  106.2620 C   0  0  0  0  0  0  0  0  0  0  0  0
   35.2910  -37.6210  105.6180 C   0  0  0  0  0  0  0  0  0  0  0  0
   35.3990  -37.3110  104.2560 C   0  0  0  0  0  0  0  0  0  0  0  0
   36.4990  -37.7490  103.5080 C   0  0  0  0  0  0  0  0  0  0  0  0
   36.6690  -37.5340  102.1640 O   0  0  0  0  0  0  0  0  0  0  0  0
   36.8620  -36.1910  101.7420 C   0  0  0  0  0  0  0  0  0  0  0  0
   37.5170  -38.4780  104.1460 C   0  0  0  0  0  0  0  0  0  0  0  0
   38.6670  -39.0870  103.3850 C   0  0  0  0  0  0  0  0  0  0  0  0
   39.7180  -39.5200  104.2830 N   0  0  0  0  0  0  0  0  0  0  0  0
   41.0380  -39.1790  104.1110 C   0  0  0  0  0  0  0  0  0  0  0  0
   41.4840  -38.5100  103.1830 O   0  0  0  0  0  0  0  0  0  0  0  0
   41.9460  -39.6290  105.1960 C   0  0  0  0  0  0  0  0  0  0  0  0
   43.1400  -40.2940  104.9070 C   0  0  0  0  0  0  0  0  0  0  0  0
   43.9690  -40.7090  105.9520 C   0  0  0  0  0  0  0  0  0  0  0  0
   43.6120  -40.4740  107.2870 C   0  0  0  0  0  0  0  0  0  0  0  0
   44.5140  -40.9410  108.1990 O   0  0  0  0  0  0  0  0  0  0  0  0
   45.0980  -40.0060  109.0890 C   0  0  0  0  0  0  0  0  0  0  0  0
   45.4610  -38.9100  108.3860 F   0  0  0  0  0  0  0  0  0  0  0  0
   44.2200  -39.6230  110.0400 F   0  0  0  0  0  0  0  0  0  0  0  0
   46.2040  -40.5150  109.6730 F   0  0  0  0  0  0  0  0  0  0  0  0
   42.4230  -39.7970  107.5660 C   0  0  0  0  0  0  0  0  0  0  0  0
   41.5950  -39.3680  106.5230 C   0  0  0  0  0  0  0  0  0  0  0  0
   37.4200  -38.7310  105.5240 C   0  0  0  0  0  0  0  0  0  0  0  0
   36.3760  -36.9640  109.3880 C   0  0  0  0  0  0  0  0  0  0  0  0
   36.1720  -35.8330  108.9760 O   0  0  0  0  0  0  0  0  0  0  0  0
   36.0170  -37.3460  110.6300 O   0  0  0  0  0  0  0  0  0  0  0  0
  1  2  1  0
  3  2  1  1
  3  4  1  0
  4  5  1  0
  5  6  2  0
  6  7  1  0
  7  8  2  0
  8  9  1  0
  9 10  1  0
  8 11  1  0
 11 12  1  0
 12 13  1  0
 13 14  1  0
 14 15  2  0
 14 16  1  0
 16 17  2  0
 17 18  1  0
 18 19  2  0
 19 20  1  0
 20 21  1  0
 21 22  1  0
 21 23  1  0
 21 24  1  0
 19 25  1  0
 25 26  2  0
 11 27  2  0
  3 28  1  0
 28 29  2  0
 28 30  1  0
 27  5  1  0
 26 16  1  0
M  END
$$$$
