BDLLIPYDNFENMY-UHFFFAOYSA-N_6LXA_m9
     RDKit          3D

 30 31  0  0  0  0  0  0  0  0999 V2000
   13.2170    7.5770  -12.9840 C   0  0  0  0  0  0  0  0  0  0  0  0
   13.1150    8.8120  -13.8710 C   0  0  0  0  0  0  0  0  0  0  0  0
   11.8800    9.6730  -13.5490 C   0  0  2  0  0  0  0  0  0  0  0  0
   10.7540    8.8570  -12.8710 C   0  0  0  0  0  0  0  0  0  0  0  0
   10.5210    9.1790  -11.4120 C   0  0  0  0  0  0  0  0  0  0  0  0
   10.6880   10.4730  -10.9160 C   0  0  0  0  0  0  0  0  0  0  0  0
   10.5590   10.7330   -9.5460 C   0  0  0  0  0  0  0  0  0  0  0  0
   10.2860    9.6980   -8.6450 C   0  0  0  0  0  0  0  0  0  0  0  0
   10.1840    9.8480   -7.2860 O   0  0  0  0  0  0  0  0  0  0  0  0
    9.5530   11.0270   -6.8070 C   0  0  0  0  0  0  0  0  0  0  0  0
   10.1030    8.3940   -9.1330 C   0  0  0  0  0  0  0  0  0  0  0  0
    9.9150    7.2120   -8.2150 C   0  0  0  0  0  0  0  0  0  0  0  0
    8.6540    7.2980   -7.5070 N   0  0  0  0  0  0  0  0  0  0  0  0
    7.9810    6.2020   -7.0230 C   0  0  0  0  0  0  0  0  0  0  0  0
    8.3750    5.0450   -7.1680 O   0  0  0  0  0  0  0  0  0  0  0  0
    6.7190    6.4510   -6.2710 C   0  0  0  0  0  0  0  0  0  0  0  0
    5.9650    5.3440   -5.8520 C   0  0  0  0  0  0  0  0  0  0  0  0
    4.7740    5.5200   -5.1390 C   0  0  0  0  0  0  0  0  0  0  0  0
    4.3160    6.8080   -4.8240 C   0  0  0  0  0  0  0  0  0  0  0  0
    3.0340    7.0220   -4.0520 C   0  0  0  0  0  0  0  0  0  0  0  0
    2.4940    5.8710   -3.5630 F   0  0  0  0  0  0  0  0  0  0  0  0
    3.2070    7.8410   -2.9800 F   0  0  0  0  0  0  0  0  0  0  0  0
    2.0640    7.5980   -4.8140 F   0  0  0  0  0  0  0  0  0  0  0  0
    5.0720    7.9120   -5.2430 C   0  0  0  0  0  0  0  0  0  0  0  0
    6.2560    7.7300   -5.9580 C   0  0  0  0  0  0  0  0  0  0  0  0
    6.9340    8.8260   -6.3320 F   0  0  0  0  0  0  0  0  0  0  0  0
   10.1880    8.1580  -10.5140 C   0  0  0  0  0  0  0  0  0  0  0  0
   11.3040   10.4250  -14.7350 C   0  0  0  0  0  0  0  0  0  0  0  0
   10.5350   11.3700  -14.6450 O   0  0  0  0  0  0  0  0  0  0  0  0
   11.6060    9.8860  -15.9290 O   0  0  0  0  0  0  0  0  0  0  0  0
  1  2  1  0
  3  2  1  6
  3  4  1  0
  4  5  1  0
  5  6  2  0
  6  7  1  0
  7  8  2  0
  8  9  1  0
  9 10  1  0
  8 11  1  0
 11 12  1  0
 12 13  1  0
 13 14  1  0
 14 15  2  0
 14 16  1  0
 16 17  2  0
 17 18  1  0
 18 19  2  0
 19 20  1  0
 20 21  1  0
 20 22  1  0
 20 23  1  0
 19 24  1  0
 24 25  2  0
 25 26  1  0
 11 27  2  0
  3 28  1  0
 28 29  2  0
 28 30  1  0
 27  5  1  0
 25 16  1  0
M  END
$$$$
