BEMRQBQIGSYKSL-UHFFFAOYSA-N_8BXH_m9
     RDKit          3D

 26 28  0  0  0  0  0  0  0  0999 V2000
  -13.1200   18.9630   19.0440 C   0  0  0  0  0  0  0  0  0  0  0  0
  -13.4760   18.4120   20.4170 C   0  0  0  0  0  0  0  0  0  0  0  0
  -13.4980   16.8980   20.4400 C   0  0  0  0  0  0  0  0  0  0  0  0
  -12.3250   16.2220   20.8230 C   0  0  0  0  0  0  0  0  0  0  0  0
  -12.2790   14.8270   20.8590 C   0  0  0  0  0  0  0  0  0  0  0  0
  -13.4060   14.0910   20.5110 C   0  0  0  0  0  0  0  0  0  0  0  0
  -13.3500   12.3730   20.5490 Cl  0  0  0  0  0  0  0  0  0  0  0  0
  -14.5800   14.7370   20.1300 C   0  0  0  0  0  0  0  0  0  0  0  0
  -14.6390   16.1410   20.1000 C   0  0  0  0  0  0  0  0  0  0  0  0
  -15.8980   16.7660   19.6840 C   0  0  0  0  0  0  0  0  0  0  0  0
  -16.4840   16.8580   18.4210 C   0  0  0  0  0  0  0  0  0  0  0  0
  -16.0400   16.3670   17.1160 C   0  0  0  0  0  0  0  0  0  0  0  0
  -14.8270   16.7710   16.6460 N   0  0  0  0  0  0  0  0  0  0  0  0
  -16.7220   15.6070   16.4340 O   0  0  0  0  0  0  0  0  0  0  0  0
  -17.7030   17.5770   18.6050 C   0  0  0  0  0  0  0  0  0  0  0  0
  -17.8580   17.9120   19.9370 C   0  0  0  0  0  0  0  0  0  0  0  0
  -18.9530   18.6600   20.5690 C   0  0  0  0  0  0  0  0  0  0  0  0
  -19.6700   18.1330   21.6260 C   0  0  0  0  0  0  0  0  0  0  0  0
  -20.6950   18.9010   22.1350 C   0  0  0  0  0  0  0  0  0  0  0  0
  -21.4880   18.5150   23.1810 N   0  0  0  0  0  0  0  0  0  0  0  0
  -22.9240   18.4470   23.1700 C   0  0  0  0  0  0  0  0  0  0  0  0
  -20.9850   20.1060   21.6240 N   0  0  0  0  0  0  0  0  0  0  0  0
  -20.2370   20.5250   20.5950 C   0  0  0  0  0  0  0  0  0  0  0  0
  -19.2190   19.8620   20.0340 N   0  0  0  0  0  0  0  0  0  0  0  0
  -16.7570   17.3810   20.5920 N   0  0  0  0  0  0  0  0  0  0  0  0
  -16.5590   17.4300   22.0310 C   0  0  0  0  0  0  0  0  0  0  0  0
  1  2  1  0
  2  3  1  0
  3  4  2  0
  4  5  1  0
  5  6  2  0
  6  7  1  0
  6  8  1  0
  8  9  2  0
  9 10  1  0
 10 11  2  0
 11 12  1  0
 12 13  1  0
 12 14  2  0
 11 15  1  0
 15 16  2  0
 16 17  1  0
 17 18  2  0
 18 19  1  0
 19 20  1  0
 20 21  1  0
 19 22  2  0
 22 23  1  0
 23 24  2  0
 16 25  1  0
 25 26  1  0
  9  3  1  0
 25 10  1  0
 24 17  1  0
M  END
$$$$
