BEUQXVWXFDOSAQ-UHFFFAOYSA-N_4L23_m1
     RDKit          3D

 34 38  0  0  0  0  0  0  0  0999 V2000
   30.4070   42.7140   36.5090 C   0  0  0  0  0  0  0  0  0  0  0  0
   30.6830   43.7980   37.4700 C   0  0  0  0  0  0  0  0  0  0  0  0
   30.4030   43.6800   38.8030 N   0  0  0  0  0  0  0  0  0  0  0  0
   30.8030   44.8330   39.3030 C   0  0  0  0  0  0  0  0  0  0  0  0
   30.7670   45.1890   40.8150 C   0  0  0  0  0  0  0  0  0  0  0  0
   29.9130   44.6240   41.7260 C   0  0  0  0  0  0  0  0  0  0  0  0
   30.2570   45.1840   42.9270 N   0  0  0  0  0  0  0  0  0  0  0  0
   31.2900   46.0730   42.7240 C   0  0  0  0  0  0  0  0  0  0  0  0
   31.6010   46.0830   41.4330 N   0  0  0  0  0  0  0  0  0  0  0  0
   31.9770   46.8950   43.7400 C   0  0  0  0  0  0  0  0  0  0  0  0
   33.0400   47.7010   43.2760 C   0  0  0  0  0  0  0  0  0  0  0  0
   33.7520   48.5590   44.1220 C   0  0  0  0  0  0  0  0  0  0  0  0
   33.4220   48.6370   45.4740 C   0  0  0  0  0  0  0  0  0  0  0  0
   34.1490   49.5300   46.3550 C   0  0  0  0  0  0  0  0  0  0  0  0
   35.4900   49.9630   46.3240 C   0  0  0  0  0  0  0  0  0  0  0  0
   35.7900   50.7820   47.3350 N   0  0  0  0  0  0  0  0  0  0  0  0
   34.6300   50.8780   48.0380 N   0  0  0  0  0  0  0  0  0  0  0  0
   34.5940   51.7020   49.2620 C   0  0  0  0  0  0  0  0  0  0  0  0
   34.6260   53.2020   48.8940 C   0  0  0  0  0  0  0  0  0  0  0  0
   33.3140   51.4560   50.0930 C   0  0  0  0  0  0  0  0  0  0  0  0
   35.8260   51.3800   50.1390 C   0  0  0  0  0  0  0  0  0  0  0  0
   36.3280   50.1110   50.0550 N   0  0  0  0  0  0  0  0  0  0  0  0
   36.3960   52.2060   50.8530 O   0  0  0  0  0  0  0  0  0  0  0  0
   33.6230   50.1360   47.4760 C   0  0  0  0  0  0  0  0  0  0  0  0
   32.3760   47.8450   45.9520 C   0  0  0  0  0  0  0  0  0  0  0  0
   31.6640   46.9720   45.1070 C   0  0  0  0  0  0  0  0  0  0  0  0
   30.6710   46.3100   45.7800 O   0  0  0  0  0  0  0  0  0  0  0  0
   29.4700   46.0550   45.0590 C   0  0  0  0  0  0  0  0  0  0  0  0
   29.6460   44.8300   44.1890 C   0  0  0  0  0  0  0  0  0  0  0  0
   31.2760   45.6220   38.2860 N   0  0  0  0  0  0  0  0  0  0  0  0
   31.8260   46.9680   38.3630 C   0  0  0  0  0  0  0  0  0  0  0  0
   32.9530   47.1540   37.3460 C   0  0  0  0  0  0  0  0  0  0  0  0
   30.7630   48.0600   38.1930 C   0  0  0  0  0  0  0  0  0  0  0  0
   31.2280   44.9620   37.1060 N   0  0  0  0  0  0  0  0  0  0  0  0
  1  2  1  0
  2  3  1  0
  3  4  2  0
  4  5  1  0
  5  6  2  0
  6  7  1  0
  7  8  1  0
  8  9  2  0
  8 10  1  0
 10 11  2  0
 11 12  1  0
 12 13  2  0
 13 14  1  0
 14 15  1  0
 15 16  2  0
 16 17  1  0
 17 18  1  0
 18 19  1  0
 18 20  1  0
 18 21  1  0
 21 22  1  0
 21 23  2  0
 17 24  1  0
 13 25  1  0
 25 26  2  0
 26 27  1  0
 27 28  1  0
 28 29  1  0
  4 30  1  0
 30 31  1  0
 31 32  1  0
 31 33  1  0
 30 34  1  0
 34  2  2  0
  9  5  1  0
 26 10  1  0
 29  7  1  0
 24 14  2  0
M  END
$$$$
