BEUQXVWXFDOSAQ-UHFFFAOYSA-N_4L23_m8
     RDKit          3D

 34 38  0  0  0  0  0  0  0  0999 V2000
   38.0450   48.4150   32.5360 C   0  0  0  0  0  0  0  0  0  0  0  0
   38.2800   47.7000   33.8040 C   0  0  0  0  0  0  0  0  0  0  0  0
   38.0440   48.2770   35.0210 N   0  0  0  0  0  0  0  0  0  0  0  0
   38.3620   47.3250   35.8770 C   0  0  0  0  0  0  0  0  0  0  0  0
   38.2050   47.4500   37.4180 C   0  0  0  0  0  0  0  0  0  0  0  0
   39.2310   47.7310   38.2830 C   0  0  0  0  0  0  0  0  0  0  0  0
   38.6440   47.7940   39.5190 N   0  0  0  0  0  0  0  0  0  0  0  0
   37.2950   47.5420   39.3840 C   0  0  0  0  0  0  0  0  0  0  0  0
   37.0250   47.3250   38.1020 N   0  0  0  0  0  0  0  0  0  0  0  0
   36.2790   47.5140   40.4540 C   0  0  0  0  0  0  0  0  0  0  0  0
   34.9530   47.2470   40.0470 C   0  0  0  0  0  0  0  0  0  0  0  0
   33.8970   47.1530   40.9610 C   0  0  0  0  0  0  0  0  0  0  0  0
   34.1340   47.3270   42.3230 C   0  0  0  0  0  0  0  0  0  0  0  0
   33.0460   47.2210   43.2750 C   0  0  0  0  0  0  0  0  0  0  0  0
   32.7990   47.9250   44.4720 C   0  0  0  0  0  0  0  0  0  0  0  0
   31.6850   47.5200   45.0850 N   0  0  0  0  0  0  0  0  0  0  0  0
   31.2030   46.5350   44.2820 N   0  0  0  0  0  0  0  0  0  0  0  0
   29.9660   45.8290   44.6670 C   0  0  0  0  0  0  0  0  0  0  0  0
   28.8010   46.8340   44.8080 C   0  0  0  0  0  0  0  0  0  0  0  0
   29.5450   44.7740   43.6190 C   0  0  0  0  0  0  0  0  0  0  0  0
   30.1770   45.1210   46.0270 C   0  0  0  0  0  0  0  0  0  0  0  0
   30.5570   45.9070   47.0790 N   0  0  0  0  0  0  0  0  0  0  0  0
   29.9750   43.9210   46.2150 O   0  0  0  0  0  0  0  0  0  0  0  0
   31.9990   46.3290   43.1840 C   0  0  0  0  0  0  0  0  0  0  0  0
   35.4390   47.5960   42.7430 C   0  0  0  0  0  0  0  0  0  0  0  0
   36.5030   47.7030   41.8280 C   0  0  0  0  0  0  0  0  0  0  0  0
   37.6930   47.9510   42.4590 O   0  0  0  0  0  0  0  0  0  0  0  0
   38.8500   47.3290   41.9080 C   0  0  0  0  0  0  0  0  0  0  0  0
   39.3520   48.1290   40.7340 C   0  0  0  0  0  0  0  0  0  0  0  0
   38.8030   46.2270   35.1840 N   0  0  0  0  0  0  0  0  0  0  0  0
   39.2500   44.9440   35.7060 C   0  0  0  0  0  0  0  0  0  0  0  0
   38.9940   43.8260   34.6940 C   0  0  0  0  0  0  0  0  0  0  0  0
   40.7220   44.9530   36.1380 C   0  0  0  0  0  0  0  0  0  0  0  0
   38.7340   46.4450   33.8500 N   0  0  0  0  0  0  0  0  0  0  0  0
  1  2  1  0
  2  3  1  0
  3  4  2  0
  4  5  1  0
  5  6  2  0
  6  7  1  0
  7  8  1  0
  8  9  2  0
  8 10  1  0
 10 11  2  0
 11 12  1  0
 12 13  2  0
 13 14  1  0
 14 15  1  0
 15 16  2  0
 16 17  1  0
 17 18  1  0
 18 19  1  0
 18 20  1  0
 18 21  1  0
 21 22  1  0
 21 23  2  0
 17 24  1  0
 13 25  1  0
 25 26  2  0
 26 27  1  0
 27 28  1  0
 28 29  1  0
  4 30  1  0
 30 31  1  0
 31 32  1  0
 31 33  1  0
 30 34  1  0
 34  2  2  0
  9  5  1  0
 26 10  1  0
 29  7  1  0
 24 14  2  0
M  END
$$$$
