BEUQXVWXFDOSAQ-UHFFFAOYSA-N_4L23_m9
     RDKit          3D

 34 38  0  0  0  0  0  0  0  0999 V2000
   29.0880   44.2050   45.6830 C   0  0  0  0  0  0  0  0  0  0  0  0
   29.9340   44.7810   44.6210 C   0  0  0  0  0  0  0  0  0  0  0  0
   30.8940   45.7180   44.8810 N   0  0  0  0  0  0  0  0  0  0  0  0
   31.4200   45.9560   43.6940 C   0  0  0  0  0  0  0  0  0  0  0  0
   32.6180   46.9120   43.4460 C   0  0  0  0  0  0  0  0  0  0  0  0
   32.9510   47.9680   44.2540 C   0  0  0  0  0  0  0  0  0  0  0  0
   34.0840   48.4970   43.6960 N   0  0  0  0  0  0  0  0  0  0  0  0
   34.4070   47.7700   42.5700 C   0  0  0  0  0  0  0  0  0  0  0  0
   33.5090   46.8040   42.4110 N   0  0  0  0  0  0  0  0  0  0  0  0
   35.5520   47.9850   41.6650 C   0  0  0  0  0  0  0  0  0  0  0  0
   35.6810   47.0720   40.5950 C   0  0  0  0  0  0  0  0  0  0  0  0
   36.6970   47.1810   39.6380 C   0  0  0  0  0  0  0  0  0  0  0  0
   37.6280   48.2130   39.7230 C   0  0  0  0  0  0  0  0  0  0  0  0
   38.6780   48.3380   38.7310 C   0  0  0  0  0  0  0  0  0  0  0  0
   40.0570   48.5880   38.8770 C   0  0  0  0  0  0  0  0  0  0  0  0
   40.6950   48.6490   37.7070 N   0  0  0  0  0  0  0  0  0  0  0  0
   39.7170   48.4420   36.7850 N   0  0  0  0  0  0  0  0  0  0  0  0
   40.0620   48.4640   35.3500 C   0  0  0  0  0  0  0  0  0  0  0  0
   41.5080   48.9690   35.1570 C   0  0  0  0  0  0  0  0  0  0  0  0
   39.9710   47.0610   34.7070 C   0  0  0  0  0  0  0  0  0  0  0  0
   39.0990   49.4170   34.6020 C   0  0  0  0  0  0  0  0  0  0  0  0
   39.3680   50.7550   34.6840 N   0  0  0  0  0  0  0  0  0  0  0  0
   38.1550   49.0350   33.9110 O   0  0  0  0  0  0  0  0  0  0  0  0
   38.4910   48.2530   37.3680 C   0  0  0  0  0  0  0  0  0  0  0  0
   37.5190   49.1240   40.7780 C   0  0  0  0  0  0  0  0  0  0  0  0
   36.5060   49.0130   41.7490 C   0  0  0  0  0  0  0  0  0  0  0  0
   36.5770   50.0190   42.6750 O   0  0  0  0  0  0  0  0  0  0  0  0
   35.3400   50.5170   43.1740 C   0  0  0  0  0  0  0  0  0  0  0  0
   34.8210   49.6050   44.2610 C   0  0  0  0  0  0  0  0  0  0  0  0
   30.7640   45.2000   42.7560 N   0  0  0  0  0  0  0  0  0  0  0  0
   31.0040   45.1280   41.3210 C   0  0  0  0  0  0  0  0  0  0  0  0
   30.5900   43.7630   40.7690 C   0  0  0  0  0  0  0  0  0  0  0  0
   30.3170   46.2560   40.5420 C   0  0  0  0  0  0  0  0  0  0  0  0
   29.8230   44.4230   43.3390 N   0  0  0  0  0  0  0  0  0  0  0  0
  1  2  1  0
  2  3  1  0
  3  4  2  0
  4  5  1  0
  5  6  2  0
  6  7  1  0
  7  8  1  0
  8  9  2  0
  8 10  1  0
 10 11  2  0
 11 12  1  0
 12 13  2  0
 13 14  1  0
 14 15  1  0
 15 16  2  0
 16 17  1  0
 17 18  1  0
 18 19  1  0
 18 20  1  0
 18 21  1  0
 21 22  1  0
 21 23  2  0
 17 24  1  0
 13 25  1  0
 25 26  2  0
 26 27  1  0
 27 28  1  0
 28 29  1  0
  4 30  1  0
 30 31  1  0
 31 32  1  0
 31 33  1  0
 30 34  1  0
 34  2  2  0
  9  5  1  0
 26 10  1  0
 29  7  1  0
 24 14  2  0
M  END
$$$$
