BGRNRDBRZYUNFJ-UHFFFAOYSA-N_6LXA_m9
     RDKit          3D

 34 37  0  0  0  0  0  0  0  0999 V2000
   12.1790   10.2310  -12.2870 C   0  0  0  0  0  0  0  0  0  0  0  0
   10.9070   10.5400  -11.4650 C   0  0  0  0  0  0  0  0  0  0  0  0
   11.2300   11.7530  -10.5660 C   0  0  0  0  0  0  0  0  0  0  0  0
    9.8000   10.9310  -12.4680 C   0  0  0  0  0  0  0  0  0  0  0  0
   10.4260    9.3650  -10.5960 C   0  0  0  0  0  0  0  0  0  0  0  0
   10.0590    9.5820   -9.2540 C   0  0  0  0  0  0  0  0  0  0  0  0
    9.6170    8.5390   -8.4350 C   0  0  0  0  0  0  0  0  0  0  0  0
    9.5260    7.2420   -8.9430 C   0  0  0  0  0  0  0  0  0  0  0  0
    9.0850    6.1710   -8.1070 N   0  0  0  0  0  0  0  0  0  0  0  0
    9.6740    4.9120   -8.0070 C   0  0  0  0  0  0  0  0  0  0  0  0
   10.7280    4.4190   -8.8500 C   0  0  0  0  0  0  0  0  0  0  0  0
   11.8470    4.8770   -9.0150 O   0  0  0  0  0  0  0  0  0  0  0  0
   10.3670    3.2920   -9.4990 O   0  0  0  0  0  0  0  0  0  0  0  0
    8.9860    4.2220   -7.0250 C   0  0  0  0  0  0  0  0  0  0  0  0
    9.2760    2.9370   -6.7090 O   0  0  0  0  0  0  0  0  0  0  0  0
   10.0750    2.6270   -5.6360 C   0  0  0  0  0  0  0  0  0  0  0  0
   10.8440    1.4670   -5.5720 C   0  0  0  0  0  0  0  0  0  0  0  0
   11.6110    1.2090   -4.4330 C   0  0  0  0  0  0  0  0  0  0  0  0
   11.6020    2.0920   -3.3470 C   0  0  0  0  0  0  0  0  0  0  0  0
   12.3970    1.7090   -2.3050 O   0  0  0  0  0  0  0  0  0  0  0  0
   13.8010    1.7510   -2.4940 C   0  0  0  0  0  0  0  0  0  0  0  0
   14.2050    0.8050   -3.3690 F   0  0  0  0  0  0  0  0  0  0  0  0
   14.1990    2.9660   -2.9280 F   0  0  0  0  0  0  0  0  0  0  0  0
   14.4050    1.5110   -1.3090 F   0  0  0  0  0  0  0  0  0  0  0  0
   10.8100    3.2390   -3.4110 C   0  0  0  0  0  0  0  0  0  0  0  0
   10.0430    3.5010   -4.5510 C   0  0  0  0  0  0  0  0  0  0  0  0
    7.9140    5.0220   -6.5530 C   0  0  0  0  0  0  0  0  0  0  0  0
    6.8670    4.8240   -5.6230 C   0  0  0  0  0  0  0  0  0  0  0  0
    5.9770    5.8600   -5.3360 C   0  0  0  0  0  0  0  0  0  0  0  0
    6.1180    7.0920   -5.9580 C   0  0  0  0  0  0  0  0  0  0  0  0
    7.1310    7.3090   -6.8950 C   0  0  0  0  0  0  0  0  0  0  0  0
    8.0050    6.2480   -7.2180 C   0  0  0  0  0  0  0  0  0  0  0  0
    9.8800    7.0000  -10.2720 C   0  0  0  0  0  0  0  0  0  0  0  0
   10.3250    8.0510  -11.0840 C   0  0  0  0  0  0  0  0  0  0  0  0
  1  2  1  0
  2  3  1  0
  2  4  1  0
  2  5  1  0
  5  6  2  0
  6  7  1  0
  7  8  2  0
  8  9  1  0
  9 10  1  0
 10 11  1  0
 11 12  2  0
 11 13  1  0
 10 14  2  0
 14 15  1  0
 15 16  1  0
 16 17  2  0
 17 18  1  0
 18 19  2  0
 19 20  1  0
 20 21  1  0
 21 22  1  0
 21 23  1  0
 21 24  1  0
 19 25  1  0
 25 26  2  0
 14 27  1  0
 27 28  2  0
 28 29  1  0
 29 30  2  0
 30 31  1  0
 31 32  2  0
  8 33  1  0
 33 34  2  0
 34  5  1  0
 32  9  1  0
 26 16  1  0
 32 27  1  0
M  END
$$$$
