BMZPTDVPNTYCJK-UHFFFAOYSA-N_3LXP_m4
     RDKit          3D

 37 40  0  0  0  0  0  0  0  0999 V2000
   -5.7170   21.1820  -28.1240 C   0  0  0  0  0  0  0  0  0  0  0  0
   -4.2320   21.0830  -27.8080 C   0  0  0  0  0  0  0  0  0  0  0  0
   -3.3820   21.6410  -28.9500 C   0  0  0  0  0  0  0  0  0  0  0  0
   -3.4750   23.1010  -28.9870 N   0  0  0  0  0  0  0  0  0  0  0  0
   -3.3340   23.7420  -30.3080 C   0  0  0  0  0  0  0  0  0  0  0  0
   -4.4250   23.3470  -31.2880 C   0  0  0  0  0  0  0  0  0  0  0  0
   -4.8250   22.0010  -31.3980 C   0  0  0  0  0  0  0  0  0  0  0  0
   -5.8280   21.6030  -32.2930 C   0  0  0  0  0  0  0  0  0  0  0  0
   -6.2280   20.1600  -32.3810 C   0  0  0  0  0  0  0  0  0  0  0  0
   -6.4140   22.5620  -33.1240 C   0  0  0  0  0  0  0  0  0  0  0  0
   -6.0140   23.8960  -33.0450 C   0  0  0  0  0  0  0  0  0  0  0  0
   -5.0220   24.2920  -32.1380 C   0  0  0  0  0  0  0  0  0  0  0  0
   -4.6120   25.6660  -32.1100 N   0  0  0  0  0  0  0  0  0  0  0  0
   -3.2190   25.9690  -31.7510 C   0  0  0  0  0  0  0  0  0  0  0  0
   -5.7830   26.8550  -31.8470 S   0  0  0  0  0  0  0  0  0  0  0  0
   -4.8220   28.2270  -31.2400 C   0  0  0  0  0  0  0  0  0  0  0  0
   -6.3140   27.2450  -33.1380 O   0  0  0  0  0  0  0  0  0  0  0  0
   -6.6730   26.4360  -30.7840 O   0  0  0  0  0  0  0  0  0  0  0  0
   -2.9850   23.8050  -27.8910 C   0  0  0  0  0  0  0  0  0  0  0  0
   -2.1010   23.1930  -27.0460 N   0  0  0  0  0  0  0  0  0  0  0  0
   -1.5720   23.8340  -25.9740 C   0  0  0  0  0  0  0  0  0  0  0  0
   -0.6280   23.0260  -25.1890 C   0  0  0  0  0  0  0  0  0  0  0  0
   -0.8730   21.6430  -25.0780 C   0  0  0  0  0  0  0  0  0  0  0  0
   -0.0060   20.8240  -24.3710 C   0  0  0  0  0  0  0  0  0  0  0  0
   -0.2510   19.5100  -24.2740 F   0  0  0  0  0  0  0  0  0  0  0  0
    1.1260   21.3520  -23.7680 C   0  0  0  0  0  0  0  0  0  0  0  0
    1.9950   20.5530  -23.0820 O   0  0  0  0  0  0  0  0  0  0  0  0
    1.4020   22.7090  -23.8650 C   0  0  0  0  0  0  0  0  0  0  0  0
    0.5340   23.5640  -24.5730 C   0  0  0  0  0  0  0  0  0  0  0  0
    0.9250   25.0240  -24.6910 C   0  0  0  0  0  0  0  0  0  0  0  0
    1.9120   25.2710  -25.8210 C   0  0  0  0  0  0  0  0  0  0  0  0
   -1.9010   25.1370  -25.6170 C   0  0  0  0  0  0  0  0  0  0  0  0
   -2.7820   25.7760  -26.4820 C   0  0  0  0  0  0  0  0  0  0  0  0
   -3.3000   27.0440  -26.4790 N   0  0  0  0  0  0  0  0  0  0  0  0
   -4.1050   27.3090  -27.5210 N   0  0  0  0  0  0  0  0  0  0  0  0
   -4.1010   26.1620  -28.2080 C   0  0  0  0  0  0  0  0  0  0  0  0
   -3.3180   25.1510  -27.6030 C   0  0  0  0  0  0  0  0  0  0  0  0
  1  2  1  0
  2  3  1  0
  3  4  1  0
  4  5  1  0
  5  6  1  0
  6  7  2  0
  7  8  1  0
  8  9  1  0
  8 10  2  0
 10 11  1  0
 11 12  2  0
 12 13  1  0
 13 14  1  0
 13 15  1  0
 15 16  1  0
 15 17  2  0
 15 18  2  0
  4 19  1  0
 19 20  2  0
 20 21  1  0
 21 22  1  0
 22 23  2  0
 23 24  1  0
 24 25  1  0
 24 26  2  0
 26 27  1  0
 26 28  1  0
 28 29  2  0
 29 30  1  0
 30 31  1  0
 21 32  2  0
 32 33  1  0
 33 34  1  0
 34 35  1  0
 35 36  2  0
 36 37  1  0
 12  6  1  0
 37 19  1  0
 29 22  1  0
 37 33  2  0
M  END
$$$$
