BONGLINICVKANL-UHFFFAOYSA-N_5U3Q_m9
     RDKit          3D

 32 35  0  0  0  0  0  0  0  0999 V2000
   48.3510  -35.5980  106.8940 C   0  0  0  0  0  0  0  0  0  0  0  0
   48.4940  -36.2560  108.1460 O   0  0  0  0  0  0  0  0  0  0  0  0
   48.2590  -37.6040  108.1640 C   0  0  0  0  0  0  0  0  0  0  0  0
   48.9410  -38.5670  107.4220 C   0  0  0  0  0  0  0  0  0  0  0  0
   48.5980  -39.9190  107.5390 C   0  0  0  0  0  0  0  0  0  0  0  0
   47.5720  -40.3260  108.4030 C   0  0  0  0  0  0  0  0  0  0  0  0
   47.2080  -41.7860  108.5180 C   0  0  0  0  0  0  0  0  0  0  0  0
   45.7880  -41.8960  108.4670 O   0  0  0  0  0  0  0  0  0  0  0  0
   45.2010  -41.8090  107.2360 C   0  0  0  0  0  0  0  0  0  0  0  0
   44.2070  -40.8340  107.1330 C   0  0  0  0  0  0  0  0  0  0  0  0
   43.5200  -40.6370  105.9330 C   0  0  0  0  0  0  0  0  0  0  0  0
   43.8220  -41.4160  104.8100 C   0  0  0  0  0  0  0  0  0  0  0  0
   43.0670  -41.2270  103.5170 C   0  0  0  0  0  0  0  0  0  0  0  0
   43.0200  -39.4870  102.9680 S   0  0  0  0  0  0  0  0  0  0  0  0
   41.2670  -39.1960  103.0350 C   0  0  0  0  0  0  0  0  0  0  0  0
   40.5030  -39.7370  104.0760 C   0  0  0  0  0  0  0  0  0  0  0  0
   39.1100  -39.5420  104.1410 C   0  0  0  0  0  0  0  0  0  0  0  0
   38.4490  -38.7950  103.1640 C   0  0  0  0  0  0  0  0  0  0  0  0
   37.1090  -38.5510  103.1040 O   0  0  0  0  0  0  0  0  0  0  0  0
   36.2990  -39.1130  104.1260 C   0  0  0  0  0  0  0  0  0  0  0  0
   35.8610  -38.0370  105.1020 C   0  0  0  0  0  0  0  0  0  0  0  0
   35.2920  -36.9860  104.8630 O   0  0  0  0  0  0  0  0  0  0  0  0
   36.1760  -38.3540  106.3780 O   0  0  0  0  0  0  0  0  0  0  0  0
   39.2160  -38.2410  102.1480 C   0  0  0  0  0  0  0  0  0  0  0  0
   40.6070  -38.4300  102.0830 C   0  0  0  0  0  0  0  0  0  0  0  0
   41.1650  -37.7630  100.8590 C   0  0  0  0  0  0  0  0  0  0  0  0
   40.0380  -36.7880  100.5010 C   0  0  0  0  0  0  0  0  0  0  0  0
   38.7340  -37.4370  100.9760 C   0  0  0  0  0  0  0  0  0  0  0  0
   44.8220  -42.3940  104.9170 C   0  0  0  0  0  0  0  0  0  0  0  0
   45.5080  -42.5880  106.1200 C   0  0  0  0  0  0  0  0  0  0  0  0
   46.8830  -39.3540  109.1370 C   0  0  0  0  0  0  0  0  0  0  0  0
   47.2280  -38.0050  109.0180 C   0  0  0  0  0  0  0  0  0  0  0  0
  1  2  1  0
  2  3  1  0
  3  4  2  0
  4  5  1  0
  5  6  2  0
  6  7  1  0
  7  8  1  0
  8  9  1  0
  9 10  2  0
 10 11  1  0
 11 12  2  0
 12 13  1  0
 13 14  1  0
 14 15  1  0
 15 16  2  0
 16 17  1  0
 17 18  2  0
 18 19  1  0
 19 20  1  0
 20 21  1  0
 21 22  2  0
 21 23  1  0
 18 24  1  0
 24 25  2  0
 25 26  1  0
 26 27  1  0
 27 28  1  0
 12 29  1  0
 29 30  2  0
  6 31  1  0
 31 32  2  0
 32  3  1  0
 30  9  1  0
 25 15  1  0
 28 24  1  0
M  END
$$$$
