BPAQJTYBGWPSRM-UHFFFAOYSA-N_2JKH_m8
     RDKit          3D

 37 41  0  0  0  0  0  0  0  0999 V2000
   -1.0330    8.0460   27.1150 C   0  0  0  0  0  0  0  0  0  0  0  0
   -1.9960    9.2150   27.1850 C   0  0  0  0  0  0  0  0  0  0  0  0
   -2.9210    9.1980   28.0950 N   0  0  0  0  0  0  0  0  0  0  0  0
   -1.8780   10.2680   26.2970 N   0  0  0  0  0  0  0  0  0  0  0  0
   -2.8180   11.3930   26.3250 C   0  0  0  0  0  0  0  0  0  0  0  0
   -3.5170   11.5090   24.9740 C   0  0  0  0  0  0  0  0  0  0  0  0
   -2.4970   11.6300   23.8380 C   0  0  0  0  0  0  0  0  0  0  0  0
   -3.1400   11.5560   22.5590 O   0  0  0  0  0  0  0  0  0  0  0  0
   -4.2120   12.3750   22.3290 C   0  0  0  0  0  0  0  0  0  0  0  0
   -3.8960   13.7300   22.2080 C   0  0  0  0  0  0  0  0  0  0  0  0
   -4.8910   14.6870   21.9890 C   0  0  0  0  0  0  0  0  0  0  0  0
   -6.2250   14.2640   21.9150 C   0  0  0  0  0  0  0  0  0  0  0  0
   -7.3540   15.0010   21.7140 N   0  0  0  0  0  0  0  0  0  0  0  0
   -8.3810   14.1650   21.7410 C   0  0  0  0  0  0  0  0  0  0  0  0
   -9.8130   14.6500   21.5100 C   0  0  0  0  0  0  0  0  0  0  0  0
  -10.5120   13.9970   20.3100 C   0  0  0  0  0  0  0  0  0  0  0  0
   -9.8350   16.1810   21.3670 C   0  0  0  0  0  0  0  0  0  0  0  0
  -10.6650   14.2920   22.7580 C   0  0  0  0  0  0  0  0  0  0  0  0
   -7.9190   12.8710   21.9560 N   0  0  0  0  0  0  0  0  0  0  0  0
   -8.6780   11.6380   22.1180 C   0  0  0  0  0  0  0  0  0  0  0  0
   -8.1770   10.4850   21.2830 C   0  0  0  0  0  0  0  0  0  0  0  0
   -7.8070    9.2570   21.8480 C   0  0  0  0  0  0  0  0  0  0  0  0
   -7.3700    8.2030   21.0410 C   0  0  0  0  0  0  0  0  0  0  0  0
   -7.3090    8.3400   19.6480 C   0  0  0  0  0  0  0  0  0  0  0  0
   -6.8610    7.2900   18.8300 C   0  0  0  0  0  0  0  0  0  0  0  0
   -6.8000    7.4420   17.4430 C   0  0  0  0  0  0  0  0  0  0  0  0
   -7.1970    8.6470   16.8620 C   0  0  0  0  0  0  0  0  0  0  0  0
   -7.1270    8.8150   15.3880 C   0  0  0  0  0  0  0  0  0  0  0  0
   -6.0240    9.1160   14.7810 N   0  0  0  0  0  0  0  0  0  0  0  0
   -8.2380    8.6500   14.6300 N   0  0  0  0  0  0  0  0  0  0  0  0
   -7.6470    9.7020   17.6620 C   0  0  0  0  0  0  0  0  0  0  0  0
   -7.7060    9.5620   19.0590 C   0  0  0  0  0  0  0  0  0  0  0  0
   -8.1420   10.6120   19.8830 C   0  0  0  0  0  0  0  0  0  0  0  0
   -6.5340   12.9210   22.0620 C   0  0  0  0  0  0  0  0  0  0  0  0
   -5.5440   11.9430   22.2740 C   0  0  0  0  0  0  0  0  0  0  0  0
   -1.5070   10.4600   23.8980 C   0  0  0  0  0  0  0  0  0  0  0  0
   -0.8480   10.3730   25.2680 C   0  0  0  0  0  0  0  0  0  0  0  0
  1  2  1  0
  2  3  2  3
  2  4  1  0
  4  5  1  0
  5  6  1  0
  6  7  1  0
  7  8  1  0
  8  9  1  0
  9 10  2  0
 10 11  1  0
 11 12  2  0
 12 13  1  0
 13 14  2  0
 14 15  1  0
 15 16  1  0
 15 17  1  0
 15 18  1  0
 14 19  1  0
 19 20  1  0
 20 21  1  0
 21 22  2  0
 22 23  1  0
 23 24  2  0
 24 25  1  0
 25 26  2  0
 26 27  1  0
 27 28  1  0
 28 29  2  3
 28 30  1  0
 27 31  2  0
 31 32  1  0
 32 33  2  0
 19 34  1  0
 34 35  2  0
  7 36  1  0
 36 37  1  0
 37  4  1  0
 35  9  1  0
 34 12  1  0
 33 21  1  0
 32 24  1  0
M  END
$$$$
