BRDWSYKDGOVQJG-UHFFFAOYSA-N_2JKH_m7
     RDKit          3D

 39 42  0  0  0  0  0  0  0  0999 V2000
   -6.9310    7.3980   19.6740 C   0  0  0  0  0  0  0  0  0  0  0  0
   -6.9310    6.6810   18.3230 C   0  0  0  0  0  0  0  0  0  0  0  0
   -6.5890    5.2030   18.5030 C   0  0  0  0  0  0  0  0  0  0  0  0
   -5.9510    7.3390   17.3390 C   0  0  0  0  0  0  0  0  0  0  0  0
   -4.9050    8.0480   18.0040 O   0  0  0  0  0  0  0  0  0  0  0  0
   -4.7640    9.4040   17.5580 C   0  0  0  0  0  0  0  0  0  0  0  0
   -4.5680   10.3540   18.7490 C   0  0  1  0  0  0  0  0  0  0  0  0
   -5.9280   11.0060   19.0900 C   0  0  0  0  0  0  0  0  0  0  0  0
   -6.9210   10.8240   18.3890 O   0  0  0  0  0  0  0  0  0  0  0  0
   -5.8880   11.7280   20.2720 N   0  0  0  0  0  0  0  0  0  0  0  0
   -6.9350   12.3920   20.9320 C   0  0  0  0  0  0  0  0  0  0  0  0
   -7.7480   11.8010   21.8970 C   0  0  0  0  0  0  0  0  0  0  0  0
   -8.7740   12.5360   22.5050 C   0  0  0  0  0  0  0  0  0  0  0  0
   -9.0080   13.8740   22.1610 C   0  0  0  0  0  0  0  0  0  0  0  0
  -10.1060   14.6300   22.7780 C   0  0  0  0  0  0  0  0  0  0  0  0
  -11.3820   14.5520   22.1880 C   0  0  0  0  0  0  0  0  0  0  0  0
  -12.4680   15.2610   22.7060 C   0  0  0  0  0  0  0  0  0  0  0  0
  -12.3020   16.0660   23.8280 C   0  0  0  0  0  0  0  0  0  0  0  0
  -11.0510   16.1590   24.4370 C   0  0  0  0  0  0  0  0  0  0  0  0
   -9.9570   15.4450   23.9180 C   0  0  0  0  0  0  0  0  0  0  0  0
   -8.3830   15.5590   24.7230 S   0  0  0  0  0  0  0  0  0  0  0  0
   -8.6360   16.6020   26.0240 N   0  0  0  0  0  0  0  0  0  0  0  0
   -7.4690   16.2740   23.8600 O   0  0  0  0  0  0  0  0  0  0  0  0
   -8.0660   14.2950   25.3450 O   0  0  0  0  0  0  0  0  0  0  0  0
   -8.1860   14.4600   21.1900 C   0  0  0  0  0  0  0  0  0  0  0  0
   -7.1570   13.7290   20.5870 C   0  0  0  0  0  0  0  0  0  0  0  0
   -3.9830    9.6780   19.9770 C   0  0  0  0  0  0  0  0  0  0  0  0
   -3.0650   10.7670   20.4220 C   0  0  0  0  0  0  0  0  0  0  0  0
   -2.4210   10.7530   21.7570 C   0  0  0  0  0  0  0  0  0  0  0  0
   -1.0240   10.6640   21.8350 C   0  0  0  0  0  0  0  0  0  0  0  0
   -0.3840   10.6390   23.0760 C   0  0  0  0  0  0  0  0  0  0  0  0
   -1.1380   10.6970   24.2480 C   0  0  0  0  0  0  0  0  0  0  0  0
   -2.5300   10.7860   24.1730 C   0  0  0  0  0  0  0  0  0  0  0  0
   -3.3320   10.8290   25.4230 C   0  0  0  0  0  0  0  0  0  0  0  0
   -3.0240   10.1200   26.4620 N   0  0  0  0  0  0  0  0  0  0  0  0
   -4.4190   11.6310   25.5070 N   0  0  0  0  0  0  0  0  0  0  0  0
   -3.1770   10.8140   22.9320 C   0  0  0  0  0  0  0  0  0  0  0  0
   -2.8870   11.7190   19.5600 N   0  0  0  0  0  0  0  0  0  0  0  0
   -3.6160   11.3720   18.3960 O   0  0  0  0  0  0  0  0  0  0  0  0
  1  2  1  0
  2  3  1  0
  2  4  1  0
  4  5  1  0
  5  6  1  0
  7  6  1  6
  7  8  1  0
  8  9  2  0
  8 10  1  0
 10 11  1  0
 11 12  2  0
 12 13  1  0
 13 14  2  0
 14 15  1  0
 15 16  2  0
 16 17  1  0
 17 18  2  0
 18 19  1  0
 19 20  2  0
 20 21  1  0
 21 22  1  0
 21 23  2  0
 21 24  2  0
 14 25  1  0
 25 26  2  0
  7 27  1  0
 27 28  1  0
 28 29  1  0
 29 30  2  0
 30 31  1  0
 31 32  2  0
 32 33  1  0
 33 34  1  0
 34 35  2  3
 34 36  1  0
 33 37  2  0
 28 38  2  0
 38 39  1  0
 39  7  1  0
 26 11  1  0
 37 29  1  0
 20 15  1  0
M  END
$$$$
