BUBVUGNKOKZKNG-BETUJISGSA-N_6N7A_m9
     RDKit          3D

 26 30  0  0  0  0  0  0  0  0999 V2000
    6.4620  -19.7330   20.0200 C   0  0  0  0  0  0  0  0  0  0  0  0
    5.1540  -20.3430   20.2310 N   0  0  0  0  0  0  0  0  0  0  0  0
    5.1360  -21.7480   20.3700 C   0  0  0  0  0  0  0  0  0  0  0  0
    4.7770  -22.4830   19.2780 N   0  0  0  0  0  0  0  0  0  0  0  0
    4.7620  -23.8260   19.3470 C   0  0  0  0  0  0  0  0  0  0  0  0
    5.0580  -24.5990   20.4000 N   0  0  0  0  0  0  0  0  0  0  0  0
    5.3820  -23.8580   21.4670 C   0  0  0  0  0  0  0  0  0  0  0  0
    5.7090  -24.3850   22.6860 N   0  0  0  0  0  0  0  0  0  0  0  0
    5.9600  -23.3750   23.5750 C   0  0  0  0  0  0  0  0  0  0  0  0
    5.7950  -22.1820   22.9030 C   0  0  0  0  0  0  0  0  0  0  0  0
    5.4420  -22.4720   21.5490 C   0  0  0  0  0  0  0  0  0  0  0  0
    3.9850  -19.5840   19.8600 C   0  0  2  0  0  0  0  0  0  0  0  0
    4.2750  -18.4510   18.8370 C   0  0  0  0  0  0  0  0  0  0  0  0
    3.2700  -17.5740   19.6270 C   0  0  2  0  0  0  0  0  0  0  0  0
    3.5840  -16.0970   19.7790 C   0  0  0  0  0  0  0  0  0  0  0  0
    2.0750  -15.1370   19.7690 S   0  0  0  0  0  0  0  0  0  0  0  0
    2.1130  -14.2040   18.6650 O   0  0  0  0  0  0  0  0  0  0  0  0
    1.7750  -14.7000   21.1170 O   0  0  0  0  0  0  0  0  0  0  0  0
    0.9390  -16.3430   19.3770 N   0  0  0  0  0  0  0  0  0  0  0  0
   -0.4040  -16.4630   20.0560 C   0  0  0  0  0  0  0  0  0  0  0  0
   -1.1000  -16.0970   18.7530 C   0  0  0  0  0  0  0  0  0  0  0  0
   -1.6580  -14.6980   18.6560 C   0  0  0  0  0  0  0  0  0  0  0  0
   -2.9190  -15.4050   18.1450 C   0  0  0  0  0  0  0  0  0  0  0  0
   -2.3240  -16.7170   18.3360 O   0  0  0  0  0  0  0  0  0  0  0  0
    0.2240  -16.3480   18.0460 C   0  0  0  0  0  0  0  0  0  0  0  0
    3.6190  -18.4490   20.8570 C   0  0  0  0  0  0  0  0  0  0  0  0
  1  2  1  0
  2  3  1  0
  3  4  2  0
  4  5  1  0
  5  6  2  0
  6  7  1  0
  7  8  1  0
  8  9  1  0
  9 10  2  0
 10 11  1  0
 12  2  1  6
 12 13  1  0
 13 14  1  0
 14 15  1  6
 15 16  1  0
 16 17  2  0
 16 18  2  0
 16 19  1  0
 19 20  1  0
 20 21  1  0
 21 22  1  0
 22 23  1  0
 23 24  1  0
 21 25  1  0
 14 26  1  0
 11  3  1  0
 26 12  1  0
 11  7  2  0
 25 19  1  0
 24 21  1  0
M  END
$$$$
