BWQAEQBADOVIBT-UHFFFAOYSA-N_9V8H_m4
     RDKit          3D

 40 44  0  0  0  0  0  0  0  0999 V2000
  -11.4250   -8.5130  -30.5690 C   0  0  0  0  0  0  0  0  0  0  0  0
  -10.3490   -7.5830  -30.9500 C   0  0  0  0  0  0  0  0  0  0  0  0
  -10.6900   -6.2720  -31.1240 O   0  0  0  0  0  0  0  0  0  0  0  0
   -9.5170   -5.6580  -31.4780 C   0  0  0  0  0  0  0  0  0  0  0  0
   -9.5760   -4.2200  -31.7310 C   0  0  0  0  0  0  0  0  0  0  0  0
   -8.8140   -3.6650  -32.7670 C   0  0  0  0  0  0  0  0  0  0  0  0
   -8.8520   -2.2900  -33.0330 C   0  0  0  0  0  0  0  0  0  0  0  0
   -9.6550   -1.4280  -32.2700 C   0  0  0  0  0  0  0  0  0  0  0  0
   -9.6990    0.0160  -32.5500 C   0  0  0  0  0  0  0  0  0  0  0  0
  -10.9230    0.6780  -32.7520 C   0  0  0  0  0  0  0  0  0  0  0  0
  -10.9650    2.0490  -33.0190 C   0  0  0  0  0  0  0  0  0  0  0  0
   -9.7840    2.7820  -33.0900 C   0  0  0  0  0  0  0  0  0  0  0  0
   -8.5600    2.1470  -32.8930 C   0  0  0  0  0  0  0  0  0  0  0  0
   -8.5190    0.7750  -32.6260 C   0  0  0  0  0  0  0  0  0  0  0  0
  -10.4170   -1.9880  -31.2330 C   0  0  0  0  0  0  0  0  0  0  0  0
  -10.3790   -3.3630  -30.9670 C   0  0  0  0  0  0  0  0  0  0  0  0
   -8.4810   -6.4740  -31.5380 N   0  0  0  0  0  0  0  0  0  0  0  0
   -8.9990   -7.7070  -31.2050 C   0  0  0  0  0  0  0  0  0  0  0  0
   -8.1280   -8.9130  -31.1630 C   0  0  0  0  0  0  0  0  0  0  0  0
   -7.4730   -9.1150  -29.7980 C   0  0  0  0  0  0  0  0  0  0  0  0
   -8.4110   -9.7530  -28.9250 O   0  0  0  0  0  0  0  0  0  0  0  0
   -8.5960   -9.1930  -27.6910 C   0  0  0  0  0  0  0  0  0  0  0  0
   -9.6240   -8.3250  -27.3280 C   0  0  0  0  0  0  0  0  0  0  0  0
   -9.6930   -7.8210  -26.0250 C   0  0  0  0  0  0  0  0  0  0  0  0
   -8.7360   -8.1780  -25.0660 C   0  0  0  0  0  0  0  0  0  0  0  0
   -8.8110   -7.6250  -23.6560 C   0  0  0  0  0  0  0  0  0  0  0  0
   -9.0450   -8.6690  -22.5230 C   0  0  1  0  0  0  0  0  0  0  0  0
   -8.1150   -9.8820  -22.7100 C   0  0  0  0  0  0  0  0  0  0  0  0
   -8.7980   -7.9650  -21.2930 O   0  0  0  0  0  0  0  0  0  0  0  0
   -7.6210   -7.3090  -21.0840 C   0  0  0  0  0  0  0  0  0  0  0  0
   -7.7440   -5.9380  -20.8460 C   0  0  0  0  0  0  0  0  0  0  0  0
   -6.6170   -5.1540  -20.5980 C   0  0  0  0  0  0  0  0  0  0  0  0
   -5.3550   -5.7430  -20.5720 C   0  0  0  0  0  0  0  0  0  0  0  0
   -5.2280   -7.1150  -20.7840 C   0  0  0  0  0  0  0  0  0  0  0  0
   -6.3590   -7.8990  -21.0320 C   0  0  0  0  0  0  0  0  0  0  0  0
  -10.5250   -9.0630  -22.6780 C   0  0  0  0  0  0  0  0  0  0  0  0
  -11.2810   -8.7610  -23.5870 O   0  0  0  0  0  0  0  0  0  0  0  0
  -10.9810   -9.8660  -21.6890 O   0  0  0  0  0  0  0  0  0  0  0  0
   -7.7090   -9.0520  -25.4360 C   0  0  0  0  0  0  0  0  0  0  0  0
   -7.6440   -9.5560  -26.7370 C   0  0  0  0  0  0  0  0  0  0  0  0
  1  2  1  0
  2  3  1  0
  3  4  1  0
  4  5  1  0
  5  6  2  0
  6  7  1  0
  7  8  2  0
  8  9  1  0
  9 10  2  0
 10 11  1  0
 11 12  2  0
 12 13  1  0
 13 14  2  0
  8 15  1  0
 15 16  2  0
  4 17  2  0
 17 18  1  0
 18 19  1  0
 19 20  1  0
 20 21  1  0
 21 22  1  0
 22 23  2  0
 23 24  1  0
 24 25  2  0
 25 26  1  0
 26 27  1  0
 27 28  1  6
 27 29  1  0
 29 30  1  0
 30 31  2  0
 31 32  1  0
 32 33  2  0
 33 34  1  0
 34 35  2  0
 27 36  1  0
 36 37  2  0
 36 38  1  0
 25 39  1  0
 39 40  2  0
 18  2  2  0
 40 22  1  0
 16  5  1  0
 35 30  1  0
 14  9  1  0
M  END
$$$$
