BYRQXKXSMDUCHY-IBGZPJMESA-N_6LXA_m4
     RDKit          3D

 30 33  0  0  0  0  0  0  0  0999 V2000
    9.4560   14.1070   -8.7280 C   0  0  0  0  0  0  0  0  0  0  0  0
   10.2930   13.9150   -7.4700 C   0  0  0  0  0  0  0  0  0  0  0  0
   11.2500   12.7260   -7.5590 C   0  0  0  0  0  0  0  0  0  0  0  0
   10.5550   11.4550   -7.8720 C   0  0  0  0  0  0  0  0  0  0  0  0
   10.8630   10.8540   -9.0600 O   0  0  0  0  0  0  0  0  0  0  0  0
   10.0890    9.7240   -9.0840 C   0  0  0  0  0  0  0  0  0  0  0  0
   10.2080    8.8670  -10.2610 C   0  0  0  0  0  0  0  0  0  0  0  0
   10.2640    9.4460  -11.5380 C   0  0  0  0  0  0  0  0  0  0  0  0
   10.3790    8.6520  -12.6810 C   0  0  0  0  0  0  0  0  0  0  0  0
   10.4420    7.2650  -12.5620 C   0  0  0  0  0  0  0  0  0  0  0  0
   10.3890    6.6730  -11.3020 C   0  0  0  0  0  0  0  0  0  0  0  0
   10.2740    7.4690  -10.1580 C   0  0  0  0  0  0  0  0  0  0  0  0
    9.3290    9.5730   -8.0150 N   0  0  0  0  0  0  0  0  0  0  0  0
    9.6180   10.6690   -7.2320 C   0  0  0  0  0  0  0  0  0  0  0  0
    8.9490   10.8600   -5.9180 C   0  0  0  0  0  0  0  0  0  0  0  0
    7.5960   10.1540   -5.8490 C   0  0  0  0  0  0  0  0  0  0  0  0
    6.9040   10.6000   -4.6790 O   0  0  0  0  0  0  0  0  0  0  0  0
    6.1670    9.6730   -3.9940 C   0  0  0  0  0  0  0  0  0  0  0  0
    6.1320    9.5200   -2.5990 C   0  0  0  0  0  0  0  0  0  0  0  0
    5.3440    8.5250   -2.0060 C   0  0  0  0  0  0  0  0  0  0  0  0
    4.5930    7.6990   -2.8250 C   0  0  0  0  0  0  0  0  0  0  0  0
    4.6170    7.8540   -4.2130 C   0  0  0  0  0  0  0  0  0  0  0  0
    5.4050    8.8260   -4.8070 C   0  0  0  0  0  0  0  0  0  0  0  0
    3.7550    6.8340   -4.8830 C   0  0  0  0  0  0  0  0  0  0  0  0
    2.8660    6.3860   -3.7130 C   0  0  0  0  0  0  0  0  0  0  0  0
    3.6980    6.5590   -2.4200 C   0  0  1  0  0  0  0  0  0  0  0  0
    4.5100    5.3190   -2.0550 C   0  0  0  0  0  0  0  0  0  0  0  0
    4.0400    4.7380   -0.7550 C   0  0  0  0  0  0  0  0  0  0  0  0
    3.4450    5.3310    0.1280 O   0  0  0  0  0  0  0  0  0  0  0  0
    4.3550    3.4360   -0.6180 O   0  0  0  0  0  0  0  0  0  0  0  0
  1  2  1  0
  2  3  1  0
  3  4  1  0
  4  5  1  0
  5  6  1  0
  6  7  1  0
  7  8  2  0
  8  9  1  0
  9 10  2  0
 10 11  1  0
 11 12  2  0
  6 13  2  0
 13 14  1  0
 14 15  1  0
 15 16  1  0
 16 17  1  0
 17 18  1  0
 18 19  2  0
 19 20  1  0
 20 21  2  0
 21 22  1  0
 22 23  2  0
 22 24  1  0
 24 25  1  0
 25 26  1  0
 26 27  1  6
 27 28  1  0
 28 29  2  0
 28 30  1  0
 14  4  2  0
 23 18  1  0
 12  7  1  0
 26 21  1  0
M  END
$$$$
