BZYLNONMQIRLBA-UHFFFAOYSA-N_6LXA_m9
     RDKit          3D

 32 35  0  0  0  0  0  0  0  0999 V2000
    9.0250    9.1620   -7.8580 O   0  0  0  0  0  0  0  0  0  0  0  0
    9.8680   10.0040   -8.1410 C   0  0  0  0  0  0  0  0  0  0  0  0
   10.5490   10.1160   -9.3390 N   0  0  0  0  0  0  0  0  0  0  0  0
   10.4990    9.2630  -10.4700 C   0  0  0  0  0  0  0  0  0  0  0  0
   10.4950    7.8660  -10.3490 C   0  0  0  0  0  0  0  0  0  0  0  0
   10.4440    7.0490  -11.4820 C   0  0  0  0  0  0  0  0  0  0  0  0
   10.4010    7.6240  -12.7430 C   0  0  0  0  0  0  0  0  0  0  0  0
   10.3520    6.8380  -13.8260 F   0  0  0  0  0  0  0  0  0  0  0  0
   10.4090    9.0020  -12.9000 C   0  0  0  0  0  0  0  0  0  0  0  0
   10.4580    9.8320  -11.7680 C   0  0  0  0  0  0  0  0  0  0  0  0
   10.4760   11.3120  -11.9470 C   0  0  0  0  0  0  0  0  0  0  0  0
   10.1180   12.1330  -11.1160 O   0  0  0  0  0  0  0  0  0  0  0  0
   10.9540   11.6950  -13.1440 O   0  0  0  0  0  0  0  0  0  0  0  0
   10.1930   11.0540   -7.1290 C   0  0  0  0  0  0  0  0  0  0  0  0
   10.1730   10.7020   -5.7710 C   0  0  0  0  0  0  0  0  0  0  0  0
   10.4560   11.6540   -4.7870 C   0  0  0  0  0  0  0  0  0  0  0  0
   10.7500   12.9670   -5.1500 C   0  0  0  0  0  0  0  0  0  0  0  0
   10.7630   13.3200   -6.5020 C   0  0  0  0  0  0  0  0  0  0  0  0
   11.1510   14.9930   -6.9800 S   0  0  0  0  0  0  0  0  0  0  0  0
   10.5610   15.8670   -5.9880 O   0  0  0  0  0  0  0  0  0  0  0  0
   10.8220   15.1260   -8.3830 O   0  0  0  0  0  0  0  0  0  0  0  0
   12.8350   15.0650   -6.8160 N   0  0  0  0  0  0  0  0  0  0  0  0
   13.3760   15.6150   -5.5540 C   0  0  0  0  0  0  0  0  0  0  0  0
   14.7960   15.0890   -5.3490 C   0  0  0  0  0  0  0  0  0  0  0  0
   15.6720   15.3760   -6.5430 C   0  0  0  0  0  0  0  0  0  0  0  0
   17.0650   15.4210   -6.4000 C   0  0  0  0  0  0  0  0  0  0  0  0
   17.8790   15.6670   -7.5050 C   0  0  0  0  0  0  0  0  0  0  0  0
   17.3100   15.8630   -8.7620 C   0  0  0  0  0  0  0  0  0  0  0  0
   15.9250   15.8070   -8.9160 C   0  0  0  0  0  0  0  0  0  0  0  0
   15.0940   15.5500   -7.8140 C   0  0  0  0  0  0  0  0  0  0  0  0
   13.5920   15.5080   -8.0120 C   0  0  0  0  0  0  0  0  0  0  0  0
   10.5230   12.3630   -7.4960 C   0  0  0  0  0  0  0  0  0  0  0  0
  1  2  2  0
  2  3  1  0
  3  4  1  0
  4  5  2  0
  5  6  1  0
  6  7  2  0
  7  8  1  0
  7  9  1  0
  9 10  2  0
 10 11  1  0
 11 12  2  0
 11 13  1  0
  2 14  1  0
 14 15  2  0
 15 16  1  0
 16 17  2  0
 17 18  1  0
 18 19  1  0
 19 20  2  0
 19 21  2  0
 19 22  1  0
 22 23  1  0
 23 24  1  0
 24 25  1  0
 25 26  2  0
 26 27  1  0
 27 28  2  0
 28 29  1  0
 29 30  2  0
 30 31  1  0
 18 32  2  0
 10  4  1  0
 32 14  1  0
 31 22  1  0
 30 25  1  0
M  END
$$$$
