CAQVFQUZLBQYOV-RUZDIDTESA-N_9V8H_m2
     RDKit          3D

 31 33  0  0  0  0  0  0  0  0999 V2000
   -7.2320   -8.5720  -32.1790 C   0  0  0  0  0  0  0  0  0  0  0  0
   -7.3610   -8.7700  -30.6720 C   0  0  0  0  0  0  0  0  0  0  0  0
   -8.7960   -8.5690  -30.0950 C   0  0  0  0  0  0  0  0  0  0  0  0
   -9.2970   -7.1690  -30.5310 C   0  0  0  0  0  0  0  0  0  0  0  0
   -9.7480   -9.5970  -30.7530 C   0  0  0  0  0  0  0  0  0  0  0  0
   -8.7910   -8.6240  -28.5550 C   0  0  0  0  0  0  0  0  0  0  0  0
   -9.8210   -8.0100  -27.8190 C   0  0  0  0  0  0  0  0  0  0  0  0
   -9.8520   -8.0430  -26.4170 C   0  0  0  0  0  0  0  0  0  0  0  0
   -8.8490   -8.6960  -25.7020 C   0  0  0  0  0  0  0  0  0  0  0  0
   -8.7980   -8.7910  -24.3370 O   0  0  0  0  0  0  0  0  0  0  0  0
  -10.0050   -8.5960  -23.6070 C   0  0  0  0  0  0  0  0  0  0  0  0
   -9.7110   -8.7330  -22.1190 C   0  0  0  0  0  0  0  0  0  0  0  0
   -8.2320   -8.5410  -21.7960 C   0  0  0  0  0  0  0  0  0  0  0  0
   -8.1210   -7.3930  -20.9540 O   0  0  0  0  0  0  0  0  0  0  0  0
   -6.8700   -6.8680  -20.7750 C   0  0  0  0  0  0  0  0  0  0  0  0
   -5.7240   -7.5800  -20.4240 C   0  0  0  0  0  0  0  0  0  0  0  0
   -4.5010   -6.9150  -20.2770 C   0  0  0  0  0  0  0  0  0  0  0  0
   -4.4110   -5.5340  -20.4850 C   0  0  0  0  0  0  0  0  0  0  0  0
   -5.5660   -4.8210  -20.8120 C   0  0  0  0  0  0  0  0  0  0  0  0
   -6.7820   -5.4880  -20.9660 C   0  0  0  0  0  0  0  0  0  0  0  0
   -5.5900   -3.4710  -21.0320 O   0  0  0  0  0  0  0  0  0  0  0  0
   -4.4380   -2.7350  -20.5930 C   0  0  1  0  0  0  0  0  0  0  0  0
   -4.5080   -1.3890  -21.3270 C   0  0  0  0  0  0  0  0  0  0  0  0
   -4.5140   -2.4280  -19.0860 C   0  0  0  0  0  0  0  0  0  0  0  0
   -5.3610   -2.8000  -18.2910 O   0  0  0  0  0  0  0  0  0  0  0  0
   -3.5190   -1.6200  -18.6520 O   0  0  0  0  0  0  0  0  0  0  0  0
   -3.1420   -3.4600  -20.9800 C   0  0  0  0  0  0  0  0  0  0  0  0
   -3.0940   -4.8350  -20.3280 C   0  0  0  0  0  0  0  0  0  0  0  0
   -7.8150   -9.3120  -26.4200 C   0  0  0  0  0  0  0  0  0  0  0  0
   -6.5270  -10.1370  -25.6090 Cl  0  0  0  0  0  0  0  0  0  0  0  0
   -7.7880   -9.2770  -27.8230 C   0  0  0  0  0  0  0  0  0  0  0  0
  1  2  1  0
  2  3  1  0
  3  4  1  0
  3  5  1  0
  3  6  1  0
  6  7  2  0
  7  8  1  0
  8  9  2  0
  9 10  1  0
 10 11  1  0
 11 12  1  0
 12 13  1  0
 13 14  1  0
 14 15  1  0
 15 16  2  0
 16 17  1  0
 17 18  2  0
 18 19  1  0
 19 20  2  0
 19 21  1  0
 21 22  1  0
 22 23  1  6
 22 24  1  0
 24 25  2  0
 24 26  1  0
 22 27  1  0
 27 28  1  0
  9 29  1  0
 29 30  1  0
 29 31  2  0
 31  6  1  0
 20 15  1  0
 28 18  1  0
M  END
$$$$
