CAQVFQUZLBQYOV-RUZDIDTESA-N_6LXA_m4
     RDKit          3D

 31 33  0  0  0  0  0  0  0  0999 V2000
    2.4350    6.5350    0.5030 C   0  0  0  0  0  0  0  0  0  0  0  0
    2.6260    7.3350   -0.7830 C   0  0  0  0  0  0  0  0  0  0  0  0
    3.3750    6.5860   -1.9270 C   0  0  0  0  0  0  0  0  0  0  0  0
    4.3700    5.5910   -1.2800 C   0  0  0  0  0  0  0  0  0  0  0  0
    2.3530    5.7300   -2.7150 C   0  0  0  0  0  0  0  0  0  0  0  0
    4.1730    7.5670   -2.8070 C   0  0  0  0  0  0  0  0  0  0  0  0
    3.9110    7.6580   -4.1870 C   0  0  0  0  0  0  0  0  0  0  0  0
    4.6140    8.5430   -5.0180 C   0  0  0  0  0  0  0  0  0  0  0  0
    5.6070    9.3690   -4.4930 C   0  0  0  0  0  0  0  0  0  0  0  0
    6.3390   10.2690   -5.2200 O   0  0  0  0  0  0  0  0  0  0  0  0
    7.5320    9.8090   -5.8480 C   0  0  0  0  0  0  0  0  0  0  0  0
    8.4360   11.0030   -6.1270 C   0  0  0  0  0  0  0  0  0  0  0  0
    9.8400   10.5850   -6.5560 C   0  0  0  0  0  0  0  0  0  0  0  0
   10.0020   10.9640   -7.9240 O   0  0  0  0  0  0  0  0  0  0  0  0
   10.1320    9.9560   -8.8400 C   0  0  0  0  0  0  0  0  0  0  0  0
    9.9610    8.5950   -8.5910 C   0  0  0  0  0  0  0  0  0  0  0  0
   10.1210    7.6660   -9.6260 C   0  0  0  0  0  0  0  0  0  0  0  0
   10.4480    8.0890  -10.9190 C   0  0  0  0  0  0  0  0  0  0  0  0
   10.6430    9.4500  -11.1580 C   0  0  0  0  0  0  0  0  0  0  0  0
   10.4750   10.3750  -10.1270 C   0  0  0  0  0  0  0  0  0  0  0  0
   10.9690    9.9700  -12.3810 O   0  0  0  0  0  0  0  0  0  0  0  0
   11.4330    9.0340  -13.3650 C   0  0  1  0  0  0  0  0  0  0  0  0
   11.3020    9.7560  -14.7130 C   0  0  0  0  0  0  0  0  0  0  0  0
   12.9280    8.7170  -13.1720 C   0  0  0  0  0  0  0  0  0  0  0  0
   13.4370    7.6300  -12.9520 O   0  0  0  0  0  0  0  0  0  0  0  0
   13.7210    9.8120  -13.2300 O   0  0  0  0  0  0  0  0  0  0  0  0
   10.5620    7.7700  -13.3770 C   0  0  0  0  0  0  0  0  0  0  0  0
   10.6130    7.0840  -12.0190 C   0  0  0  0  0  0  0  0  0  0  0  0
    5.8810    9.2900   -3.1210 C   0  0  0  0  0  0  0  0  0  0  0  0
    7.1040   10.2760   -2.3910 Cl  0  0  0  0  0  0  0  0  0  0  0  0
    5.1750    8.4040   -2.2930 C   0  0  0  0  0  0  0  0  0  0  0  0
  1  2  1  0
  2  3  1  0
  3  4  1  0
  3  5  1  0
  3  6  1  0
  6  7  2  0
  7  8  1  0
  8  9  2  0
  9 10  1  0
 10 11  1  0
 11 12  1  0
 12 13  1  0
 13 14  1  0
 14 15  1  0
 15 16  2  0
 16 17  1  0
 17 18  2  0
 18 19  1  0
 19 20  2  0
 19 21  1  0
 21 22  1  0
 22 23  1  6
 22 24  1  0
 24 25  2  0
 24 26  1  0
 22 27  1  0
 27 28  1  0
  9 29  1  0
 29 30  1  0
 29 31  2  0
 31  6  1  0
 20 15  1  0
 28 18  1  0
M  END
$$$$
