CEZQCSLTMJJXSS-QHCPKHFHSA-N_6LXA_m4
     RDKit          3D

 34 37  0  0  0  0  0  0  0  0999 V2000
   11.9810    6.3340  -12.5900 C   0  0  0  0  0  0  0  0  0  0  0  0
   11.1420    7.4240  -13.2420 C   0  0  0  0  0  0  0  0  0  0  0  0
   10.9450    8.5990  -12.3200 C   0  0  0  0  0  0  0  0  0  0  0  0
   11.1890    9.9010  -12.7670 C   0  0  0  0  0  0  0  0  0  0  0  0
   10.9770   10.9940  -11.9190 C   0  0  0  0  0  0  0  0  0  0  0  0
   10.5090   10.8290  -10.6020 C   0  0  0  0  0  0  0  0  0  0  0  0
   10.2740   11.9860   -9.7130 C   0  0  0  0  0  0  0  0  0  0  0  0
    9.6620   13.0630  -10.2290 N   0  0  0  0  0  0  0  0  0  0  0  0
    9.5010   14.1030   -9.3940 C   0  0  0  0  0  0  0  0  0  0  0  0
    9.9120   14.1120   -8.0740 C   0  0  0  0  0  0  0  0  0  0  0  0
    9.7150   15.3420   -7.2440 C   0  0  0  0  0  0  0  0  0  0  0  0
   10.4880   12.9350   -7.6100 C   0  0  0  0  0  0  0  0  0  0  0  0
   10.8860   12.7960   -6.2730 N   0  0  0  0  0  0  0  0  0  0  0  0
   12.2370   13.2760   -5.9930 C   0  0  0  0  0  0  0  0  0  0  0  0
   10.4780   11.5460   -5.6190 C   0  0  0  0  0  0  0  0  0  0  0  0
    9.1820   11.0170   -6.2430 C   0  0  0  0  0  0  0  0  0  0  0  0
    8.1610   10.6270   -5.1770 C   0  0  0  0  0  0  0  0  0  0  0  0
    6.9940   10.1290   -5.8270 O   0  0  0  0  0  0  0  0  0  0  0  0
    6.0730    9.4840   -5.0480 C   0  0  0  0  0  0  0  0  0  0  0  0
    6.0500    9.9070   -3.7080 C   0  0  0  0  0  0  0  0  0  0  0  0
    5.1640    9.3460   -2.7830 C   0  0  0  0  0  0  0  0  0  0  0  0
    4.3070    8.3470   -3.2140 C   0  0  0  0  0  0  0  0  0  0  0  0
    4.3190    7.9330   -4.5520 C   0  0  0  0  0  0  0  0  0  0  0  0
    5.1890    8.4930   -5.4780 C   0  0  0  0  0  0  0  0  0  0  0  0
    3.2670    6.8980   -4.8020 C   0  0  0  0  0  0  0  0  0  0  0  0
    2.9920    6.4070   -3.3750 C   0  0  0  0  0  0  0  0  0  0  0  0
    3.2380    7.6160   -2.4400 C   0  0  1  0  0  0  0  0  0  0  0  0
    3.6500    7.2000   -1.0280 C   0  0  0  0  0  0  0  0  0  0  0  0
    2.6680    7.6740    0.0060 C   0  0  0  0  0  0  0  0  0  0  0  0
    2.1770    7.0320    0.9170 O   0  0  0  0  0  0  0  0  0  0  0  0
    2.3310    8.9660   -0.1800 O   0  0  0  0  0  0  0  0  0  0  0  0
   10.6930   11.8900   -8.4370 N   0  0  0  0  0  0  0  0  0  0  0  0
   10.2690    9.5100  -10.1730 C   0  0  0  0  0  0  0  0  0  0  0  0
   10.4800    8.4120  -11.0150 C   0  0  0  0  0  0  0  0  0  0  0  0
  1  2  1  0
  2  3  1  0
  3  4  2  0
  4  5  1  0
  5  6  2  0
  6  7  1  0
  7  8  2  0
  8  9  1  0
  9 10  2  0
 10 11  1  0
 10 12  1  0
 12 13  1  0
 13 14  1  0
 13 15  1  0
 15 16  1  0
 16 17  1  0
 17 18  1  0
 18 19  1  0
 19 20  2  0
 20 21  1  0
 21 22  2  0
 22 23  1  0
 23 24  2  0
 23 25  1  0
 25 26  1  0
 26 27  1  0
 27 28  1  1
 28 29  1  0
 29 30  2  0
 29 31  1  0
 12 32  2  0
  6 33  1  0
 33 34  2  0
 34  3  1  0
 32  7  1  0
 24 19  1  0
 27 22  1  0
M  END
$$$$
