CLRRDVPHOPGUPT-GASCZTMLSA-N_6N7A_m6
     RDKit          3D

 27 30  0  0  0  0  0  0  0  0999 V2000
    7.8370  -15.1520   21.5070 C   0  0  0  0  0  0  0  0  0  0  0  0
    7.8580  -16.5650   20.9300 C   0  0  0  0  0  0  0  0  0  0  0  0
    9.1840  -17.2580   21.2310 C   0  0  0  0  0  0  0  0  0  0  0  0
    6.7550  -17.3480   21.4650 N   0  0  0  0  0  0  0  0  0  0  0  0
    5.5320  -17.3950   20.8590 C   0  0  0  0  0  0  0  0  0  0  0  0
    5.2740  -16.7610   19.8380 O   0  0  0  0  0  0  0  0  0  0  0  0
    4.6150  -18.2100   21.4590 N   0  0  0  0  0  0  0  0  0  0  0  0
    3.4270  -18.6600   20.7550 C   0  0  2  0  0  0  0  0  0  0  0  0
    2.4480  -18.9430   21.9000 C   0  0  0  0  0  0  0  0  0  0  0  0
    3.3460  -19.2630   23.1060 C   0  0  0  0  0  0  0  0  0  0  0  0
    4.7770  -19.1410   22.5680 C   0  0  1  0  0  0  0  0  0  0  0  0
    5.2630  -20.4990   21.9920 C   0  0  0  0  0  0  0  0  0  0  0  0
    4.4050  -20.9810   20.8780 N   0  0  0  0  0  0  0  0  0  0  0  0
    4.6640  -22.2720   20.4260 C   0  0  0  0  0  0  0  0  0  0  0  0
    5.3020  -22.5190   19.2280 C   0  0  0  0  0  0  0  0  0  0  0  0
    5.4820  -23.8350   18.8700 C   0  0  0  0  0  0  0  0  0  0  0  0
    5.0750  -24.8700   19.6170 N   0  0  0  0  0  0  0  0  0  0  0  0
    4.4660  -24.5650   20.7690 C   0  0  0  0  0  0  0  0  0  0  0  0
    4.0580  -25.6650   21.5280 N   0  0  0  0  0  0  0  0  0  0  0  0
    4.7640  -26.5340   22.2750 C   0  0  0  0  0  0  0  0  0  0  0  0
    4.5380  -27.8950   22.5590 C   0  0  0  0  0  0  0  0  0  0  0  0
    5.4800  -28.4130   23.3560 N   0  0  0  0  0  0  0  0  0  0  0  0
    6.3040  -27.3720   23.5790 N   0  0  0  0  0  0  0  0  0  0  0  0
    7.4680  -27.5550   24.4110 C   0  0  0  0  0  0  0  0  0  0  0  0
    5.9180  -26.2230   22.9520 C   0  0  0  0  0  0  0  0  0  0  0  0
    4.2490  -23.3060   21.1840 N   0  0  0  0  0  0  0  0  0  0  0  0
    3.7790  -19.9680   19.9910 C   0  0  0  0  0  0  0  0  0  0  0  0
  1  2  1  0
  2  3  1  0
  2  4  1  0
  4  5  1  0
  5  6  2  0
  5  7  1  0
  7  8  1  0
  8  9  1  1
  9 10  1  0
 11 10  1  6
 11 12  1  0
 12 13  1  0
 13 14  1  0
 14 15  2  0
 15 16  1  0
 16 17  2  0
 17 18  1  0
 18 19  1  0
 19 20  1  0
 20 21  1  0
 21 22  2  0
 22 23  1  0
 23 24  1  0
 23 25  1  0
 18 26  2  0
 13 27  1  0
 11  7  1  0
 26 14  1  0
 27  8  1  0
 25 20  2  0
M  END
$$$$
