CSQBLVASANTWNX-HAQNSBGRSA-N_3LXP_m1
     RDKit          3D

 23 27  0  0  0  0  0  0  0  0999 V2000
   -4.8500   28.3330  -31.1120 C   0  0  0  0  0  0  0  0  0  0  0  0
   -4.4640   27.0280  -30.8660 C   0  0  0  0  0  0  0  0  0  0  0  0
   -5.1340   26.2460  -31.8110 C   0  0  0  0  0  0  0  0  0  0  0  0
   -5.9130   27.0590  -32.6170 C   0  0  0  0  0  0  0  0  0  0  0  0
   -6.7320   26.7340  -33.6630 N   0  0  0  0  0  0  0  0  0  0  0  0
   -6.7860   25.4500  -33.9450 C   0  0  0  0  0  0  0  0  0  0  0  0
   -6.0610   24.4900  -33.2290 N   0  0  0  0  0  0  0  0  0  0  0  0
   -6.0870   23.1730  -33.4850 N   0  0  0  0  0  0  0  0  0  0  0  0
   -5.2760   22.5920  -32.6020 N   0  0  0  0  0  0  0  0  0  0  0  0
   -4.7320   23.5650  -31.7770 C   0  0  0  0  0  0  0  0  0  0  0  0
   -3.7820   23.1700  -30.6950 C   0  0  2  0  0  0  0  0  0  0  0  0
   -3.6360   21.6480  -30.5780 C   0  0  0  0  0  0  0  0  0  0  0  0
   -2.6560   21.2580  -29.4730 C   0  0  0  0  0  0  0  0  0  0  0  0
   -3.0400   21.8730  -28.1160 C   0  0  1  0  0  0  0  0  0  0  0  0
   -2.0080   21.4490  -27.0490 C   0  0  0  0  0  0  0  0  0  0  0  0
   -2.3000   21.8930  -25.6860 N   0  0  0  0  0  0  0  0  0  0  0  0
   -1.2080   22.6350  -25.0540 C   0  0  0  0  0  0  0  0  0  0  0  0
   -1.4790   24.0390  -24.5910 C   0  0  0  0  0  0  0  0  0  0  0  0
   -0.5890   23.7990  -25.7740 C   0  0  0  0  0  0  0  0  0  0  0  0
   -3.1630   23.4000  -28.2430 C   0  0  0  0  0  0  0  0  0  0  0  0
   -4.1410   23.8050  -29.3450 C   0  0  0  0  0  0  0  0  0  0  0  0
   -5.2330   24.7750  -32.1790 C   0  0  0  0  0  0  0  0  0  0  0  0
   -5.7280   28.3400  -32.1740 N   0  0  0  0  0  0  0  0  0  0  0  0
  1  2  2  0
  2  3  1  0
  3  4  2  0
  4  5  1  0
  5  6  2  0
  6  7  1  0
  7  8  1  0
  8  9  2  0
  9 10  1  0
 11 10  1  1
 11 12  1  0
 12 13  1  0
 13 14  1  0
 14 15  1  6
 15 16  1  0
 16 17  1  0
 17 18  1  0
 18 19  1  0
 14 20  1  0
 20 21  1  0
 10 22  2  0
  4 23  1  0
 23  1  1  0
 22  3  1  0
 22  7  1  0
 21 11  1  0
 19 17  1  0
M  END
$$$$
