CSQBLVASANTWNX-HAQNSBGRSA-N_6N7A_m7
     RDKit          3D

 23 27  0  0  0  0  0  0  0  0999 V2000
    3.0820  -26.7800   21.6120 C   0  0  0  0  0  0  0  0  0  0  0  0
    3.8920  -25.6590   21.6040 C   0  0  0  0  0  0  0  0  0  0  0  0
    5.0610  -26.0270   22.2780 C   0  0  0  0  0  0  0  0  0  0  0  0
    4.9640  -27.3450   22.6880 C   0  0  0  0  0  0  0  0  0  0  0  0
    5.8580  -28.1210   23.3750 N   0  0  0  0  0  0  0  0  0  0  0  0
    6.9820  -27.5170   23.6930 C   0  0  0  0  0  0  0  0  0  0  0  0
    7.2450  -26.1840   23.3560 N   0  0  0  0  0  0  0  0  0  0  0  0
    8.3770  -25.5320   23.6600 N   0  0  0  0  0  0  0  0  0  0  0  0
    8.2550  -24.2970   23.1760 N   0  0  0  0  0  0  0  0  0  0  0  0
    7.0200  -24.1740   22.5550 C   0  0  0  0  0  0  0  0  0  0  0  0
    6.6360  -22.8760   21.9260 C   0  0  2  0  0  0  0  0  0  0  0  0
    5.5320  -22.1550   22.7090 C   0  0  0  0  0  0  0  0  0  0  0  0
    5.1540  -20.8250   22.0590 C   0  0  0  0  0  0  0  0  0  0  0  0
    4.7510  -20.9960   20.5850 C   0  0  1  0  0  0  0  0  0  0  0  0
    4.3920  -19.6190   19.9870 C   0  0  0  0  0  0  0  0  0  0  0  0
    2.9650  -19.3930   19.7520 N   0  0  0  0  0  0  0  0  0  0  0  0
    2.2770  -18.7230   20.8560 C   0  0  0  0  0  0  0  0  0  0  0  0
    1.6180  -17.4000   20.5840 C   0  0  0  0  0  0  0  0  0  0  0  0
    2.8540  -17.4610   21.4320 C   0  0  0  0  0  0  0  0  0  0  0  0
    5.8750  -21.7010   19.8070 C   0  0  0  0  0  0  0  0  0  0  0  0
    6.2630  -23.0340   20.4460 C   0  0  0  0  0  0  0  0  0  0  0  0
    6.3780  -25.3780   22.6700 C   0  0  0  0  0  0  0  0  0  0  0  0
    3.7410  -27.7950   22.2720 N   0  0  0  0  0  0  0  0  0  0  0  0
  1  2  2  0
  2  3  1  0
  3  4  2  0
  4  5  1  0
  5  6  2  0
  6  7  1  0
  7  8  1  0
  8  9  2  0
  9 10  1  0
 11 10  1  6
 11 12  1  0
 12 13  1  0
 13 14  1  0
 14 15  1  1
 15 16  1  0
 16 17  1  0
 17 18  1  0
 18 19  1  0
 14 20  1  0
 20 21  1  0
 10 22  2  0
  4 23  1  0
 23  1  1  0
 22  3  1  0
 22  7  1  0
 21 11  1  0
 19 17  1  0
M  END
$$$$
