CVIKEWAIJWFFBW-UHFFFAOYSA-N_9V8H_m3
     RDKit          3D

 39 42  0  0  0  0  0  0  0  0999 V2000
   -1.9630   -0.5190  -22.3280 C   0  0  0  0  0  0  0  0  0  0  0  0
   -2.2100   -1.8020  -21.7470 O   0  0  0  0  0  0  0  0  0  0  0  0
   -3.4210   -2.3470  -22.0760 C   0  0  0  0  0  0  0  0  0  0  0  0
   -3.8280   -2.4810  -23.2220 O   0  0  0  0  0  0  0  0  0  0  0  0
   -4.1470   -2.7720  -20.8270 C   0  0  0  0  0  0  0  0  0  0  0  0
   -3.7290   -4.1950  -20.4360 C   0  0  0  0  0  0  0  0  0  0  0  0
   -4.8550   -5.1880  -20.6120 C   0  0  0  0  0  0  0  0  0  0  0  0
   -4.5790   -6.5550  -20.7390 C   0  0  0  0  0  0  0  0  0  0  0  0
   -5.6180   -7.4710  -20.9110 C   0  0  0  0  0  0  0  0  0  0  0  0
   -6.9450   -7.0440  -20.9610 C   0  0  0  0  0  0  0  0  0  0  0  0
   -7.8580   -8.0480  -21.1240 O   0  0  0  0  0  0  0  0  0  0  0  0
   -7.7790   -8.8150  -22.3280 C   0  0  0  0  0  0  0  0  0  0  0  0
   -9.0500   -8.5460  -23.1450 C   0  0  0  0  0  0  0  0  0  0  0  0
   -8.8150   -8.6480  -24.5920 N   0  0  0  0  0  0  0  0  0  0  0  0
   -7.7600   -9.5560  -25.0240 C   0  0  0  0  0  0  0  0  0  0  0  0
   -7.0830   -9.0120  -26.2670 C   0  0  0  0  0  0  0  0  0  0  0  0
   -8.0850   -8.8540  -27.4290 C   0  0  0  0  0  0  0  0  0  0  0  0
   -7.3660   -8.0320  -28.5240 C   0  0  0  0  0  0  0  0  0  0  0  0
   -8.4510  -10.2340  -28.0150 C   0  0  0  0  0  0  0  0  0  0  0  0
   -9.3680   -8.1720  -26.9310 C   0  0  0  0  0  0  0  0  0  0  0  0
  -10.2710   -7.6260  -27.8760 C   0  0  0  0  0  0  0  0  0  0  0  0
  -11.4510   -6.9970  -27.4740 C   0  0  0  0  0  0  0  0  0  0  0  0
  -12.4010   -6.3910  -28.4460 C   0  0  0  0  0  0  0  0  0  0  0  0
  -13.5830   -6.7270  -28.4180 O   0  0  0  0  0  0  0  0  0  0  0  0
  -11.9670   -5.3830  -29.4450 C   0  0  0  0  0  0  0  0  0  0  0  0
  -11.6520   -4.0670  -29.0810 C   0  0  0  0  0  0  0  0  0  0  0  0
  -11.2370   -3.1550  -30.0570 C   0  0  0  0  0  0  0  0  0  0  0  0
  -11.1250   -3.5570  -31.3880 C   0  0  0  0  0  0  0  0  0  0  0  0
  -11.4180   -4.8730  -31.7490 C   0  0  0  0  0  0  0  0  0  0  0  0
  -11.8320   -5.7880  -30.7790 C   0  0  0  0  0  0  0  0  0  0  0  0
  -11.7250   -6.8790  -26.1190 C   0  0  0  0  0  0  0  0  0  0  0  0
  -10.8480   -7.4270  -25.1770 C   0  0  0  0  0  0  0  0  0  0  0  0
   -9.6670   -8.0990  -25.5450 C   0  0  0  0  0  0  0  0  0  0  0  0
   -7.2260   -5.6840  -20.8460 C   0  0  0  0  0  0  0  0  0  0  0  0
   -6.1870   -4.7600  -20.6740 C   0  0  0  0  0  0  0  0  0  0  0  0
   -3.8750   -1.8070  -19.7000 C   0  0  0  0  0  0  0  0  0  0  0  0
   -2.8700   -1.8030  -18.9980 O   0  0  0  0  0  0  0  0  0  0  0  0
   -4.9120   -0.9270  -19.5770 O   0  0  0  0  0  0  0  0  0  0  0  0
   -4.7420    0.2870  -20.3100 C   0  0  0  0  0  0  0  0  0  0  0  0
  1  2  1  0
  2  3  1  0
  3  4  2  0
  3  5  1  0
  5  6  1  0
  6  7  1  0
  7  8  2  0
  8  9  1  0
  9 10  2  0
 10 11  1  0
 11 12  1  0
 12 13  1  0
 13 14  1  0
 14 15  1  0
 15 16  1  0
 16 17  1  0
 17 18  1  0
 17 19  1  0
 17 20  1  0
 20 21  2  0
 21 22  1  0
 22 23  1  0
 23 24  2  0
 23 25  1  0
 25 26  2  0
 26 27  1  0
 27 28  2  0
 28 29  1  0
 29 30  2  0
 22 31  2  0
 31 32  1  0
 32 33  2  0
 10 34  1  0
 34 35  2  0
  5 36  1  0
 36 37  2  0
 36 38  1  0
 38 39  1  0
 35  7  1  0
 33 14  1  0
 33 20  1  0
 30 25  1  0
M  END
$$$$
