CWHUFRVAEUJCEF-UHFFFAOYSA-N_4L23_m5
     RDKit          3D

 29 32  0  0  0  0  0  0  0  0999 V2000
   38.4280   51.2380   43.3010 N   0  0  0  0  0  0  0  0  0  0  0  0
   37.4260   50.3430   43.0060 C   0  0  0  0  0  0  0  0  0  0  0  0
   37.7150   49.0300   42.6780 C   0  0  0  0  0  0  0  0  0  0  0  0
   36.6690   48.1240   42.4120 C   0  0  0  0  0  0  0  0  0  0  0  0
   37.0190   46.7080   42.0290 C   0  0  0  0  0  0  0  0  0  0  0  0
   36.7730   46.4170   40.7210 F   0  0  0  0  0  0  0  0  0  0  0  0
   38.3520   46.4440   42.1930 F   0  0  0  0  0  0  0  0  0  0  0  0
   36.3800   45.7660   42.7750 F   0  0  0  0  0  0  0  0  0  0  0  0
   35.3390   48.5700   42.5190 C   0  0  0  0  0  0  0  0  0  0  0  0
   34.1740   47.7080   42.2970 C   0  0  0  0  0  0  0  0  0  0  0  0
   33.8490   47.1970   41.0580 C   0  0  0  0  0  0  0  0  0  0  0  0
   32.7210   46.4100   40.9740 C   0  0  0  0  0  0  0  0  0  0  0  0
   32.3110   45.8640   39.7590 N   0  0  0  0  0  0  0  0  0  0  0  0
   31.1910   44.9080   39.7490 C   0  0  0  0  0  0  0  0  0  0  0  0
   31.0870   44.2170   38.3800 C   0  0  0  0  0  0  0  0  0  0  0  0
   31.0020   45.1680   37.3090 O   0  0  0  0  0  0  0  0  0  0  0  0
   32.1780   45.9920   37.2930 C   0  0  0  0  0  0  0  0  0  0  0  0
   32.3370   46.7780   38.6020 C   0  0  0  0  0  0  0  0  0  0  0  0
   31.9710   46.1890   42.0680 N   0  0  0  0  0  0  0  0  0  0  0  0
   32.3430   46.7000   43.2510 C   0  0  0  0  0  0  0  0  0  0  0  0
   31.5660   46.4460   44.3650 N   0  0  0  0  0  0  0  0  0  0  0  0
   31.0960   47.5960   45.1380 C   0  0  0  0  0  0  0  0  0  0  0  0
   30.5440   47.1420   46.4970 C   0  0  0  0  0  0  0  0  0  0  0  0
   29.5580   46.1090   46.3530 O   0  0  0  0  0  0  0  0  0  0  0  0
   30.1490   44.9580   45.7300 C   0  0  0  0  0  0  0  0  0  0  0  0
   30.6830   45.2790   44.3260 C   0  0  0  0  0  0  0  0  0  0  0  0
   33.4360   47.4590   43.3890 N   0  0  0  0  0  0  0  0  0  0  0  0
   35.1690   49.9070   42.8840 C   0  0  0  0  0  0  0  0  0  0  0  0
   36.1700   50.7890   43.1190 N   0  0  0  0  0  0  0  0  0  0  0  0
  1  2  1  0
  2  3  2  0
  3  4  1  0
  4  5  1  0
  5  6  1  0
  5  7  1  0
  5  8  1  0
  4  9  2  0
  9 10  1  0
 10 11  2  0
 11 12  1  0
 12 13  1  0
 13 14  1  0
 14 15  1  0
 15 16  1  0
 16 17  1  0
 17 18  1  0
 12 19  2  0
 19 20  1  0
 20 21  1  0
 21 22  1  0
 22 23  1  0
 23 24  1  0
 24 25  1  0
 25 26  1  0
 20 27  2  0
  9 28  1  0
 28 29  2  0
 29  2  1  0
 27 10  1  0
 18 13  1  0
 26 21  1  0
M  END
$$$$
