CYPTUCSRAKRHJR-UHFFFAOYSA-N_2JKH_m2
     RDKit          3D

 29 31  0  0  0  0  0  0  0  0999 V2000
   -5.7320   14.8580   22.9990 C   0  0  0  0  0  0  0  0  0  0  0  0
   -4.9450   13.6110   22.7300 C   0  0  0  0  0  0  0  0  0  0  0  0
   -3.6100   13.5120   23.1480 C   0  0  0  0  0  0  0  0  0  0  0  0
   -2.8500   12.3690   22.8780 C   0  0  0  0  0  0  0  0  0  0  0  0
   -1.5680   12.4100   23.3560 O   0  0  0  0  0  0  0  0  0  0  0  0
   -0.9010   11.1600   23.5330 C   0  0  0  0  0  0  0  0  0  0  0  0
   -0.9660   10.7410   25.0100 C   0  0  0  0  0  0  0  0  0  0  0  0
   -2.4070   10.4470   25.4530 C   0  0  0  0  0  0  0  0  0  0  0  0
   -2.4650   10.0010   26.9150 C   0  0  0  0  0  0  0  0  0  0  0  0
   -1.5730    8.8600   27.1320 N   0  0  0  0  0  0  0  0  0  0  0  0
   -1.9490    7.7790   27.8710 C   0  0  0  0  0  0  0  0  0  0  0  0
   -2.8170    7.7660   28.8220 N   0  0  0  0  0  0  0  0  0  0  0  0
   -1.3610    6.6190   27.5450 N   0  0  0  0  0  0  0  0  0  0  0  0
   -0.1760    9.1030   26.7560 C   0  0  0  0  0  0  0  0  0  0  0  0
   -0.0890    9.5110   25.2880 C   0  0  0  0  0  0  0  0  0  0  0  0
   -3.4280   11.3090   22.1830 C   0  0  0  0  0  0  0  0  0  0  0  0
   -4.7450   11.4190   21.7350 C   0  0  0  0  0  0  0  0  0  0  0  0
   -5.3440   10.3820   21.0680 O   0  0  0  0  0  0  0  0  0  0  0  0
   -5.1210   10.2730   19.4510 S   0  0  0  0  0  0  0  0  0  0  0  0
   -3.7160   10.4310   19.1250 O   0  0  0  0  0  0  0  0  0  0  0  0
   -6.1260   11.1020   18.8050 O   0  0  0  0  0  0  0  0  0  0  0  0
   -5.5360    8.5870   19.0840 C   0  0  0  0  0  0  0  0  0  0  0  0
   -4.7320    7.8770   18.1790 C   0  0  0  0  0  0  0  0  0  0  0  0
   -5.0360    6.5530   17.8630 C   0  0  0  0  0  0  0  0  0  0  0  0
   -6.1400    5.9350   18.4480 C   0  0  0  0  0  0  0  0  0  0  0  0
   -6.9390    6.6420   19.3510 C   0  0  0  0  0  0  0  0  0  0  0  0
   -6.6420    7.9720   19.6750 C   0  0  0  0  0  0  0  0  0  0  0  0
   -7.6890    8.7480   20.8060 Cl  0  0  0  0  0  0  0  0  0  0  0  0
   -5.5080   12.5520   22.0110 C   0  0  0  0  0  0  0  0  0  0  0  0
  1  2  1  0
  2  3  2  0
  3  4  1  0
  4  5  1  0
  5  6  1  0
  6  7  1  0
  7  8  1  0
  8  9  1  0
  9 10  1  0
 10 11  1  0
 11 12  2  3
 11 13  1  0
 10 14  1  0
 14 15  1  0
  4 16  2  0
 16 17  1  0
 17 18  1  0
 18 19  1  0
 19 20  2  0
 19 21  2  0
 19 22  1  0
 22 23  2  0
 23 24  1  0
 24 25  2  0
 25 26  1  0
 26 27  2  0
 27 28  1  0
 17 29  2  0
 29  2  1  0
 15  7  1  0
 27 22  1  0
M  END
$$$$
