CYSRURFSGZEJNU-SCZZXKLOSA-N_6LXA_m5
     RDKit          3D

 13 13  0  0  0  0  0  0  0  0999 V2000
   10.3400    4.2670  -10.3840 C   0  0  0  0  0  0  0  0  0  0  0  0
   10.8730    5.5980   -9.8310 C   0  0  0  0  0  0  0  0  0  0  0  0
   10.3440    5.7780   -8.4020 C   0  0  0  0  0  0  0  0  0  0  0  0
   12.2950    5.4660   -9.7460 O   0  0  0  0  0  0  0  0  0  0  0  0
   10.5840    6.8330  -10.6920 C   0  0  0  0  0  0  0  0  0  0  0  0
   10.2870    8.0500  -10.1890 C   0  0  0  0  0  0  0  0  0  0  0  0
   10.0120    9.2780  -11.0090 C   0  0  1  0  0  0  0  0  0  0  0  0
   10.7200   10.3540  -10.3940 O   0  0  0  0  0  0  0  0  0  0  0  0
   10.4390    9.1410  -12.4940 C   0  0  1  0  0  0  0  0  0  0  0  0
    9.8190   10.2530  -13.3430 C   0  0  0  0  0  0  0  0  0  0  0  0
   11.8680    9.3160  -12.5900 O   0  0  0  0  0  0  0  0  0  0  0  0
   10.0430    7.7630  -13.0310 C   0  0  0  0  0  0  0  0  0  0  0  0
   10.6410    6.6200  -12.1990 C   0  0  0  0  0  0  0  0  0  0  0  0
  1  2  1  0
  2  3  1  0
  2  4  1  0
  2  5  1  0
  5  6  2  0
  6  7  1  0
  7  8  1  1
  7  9  1  0
  9 10  1  6
  9 11  1  0
  9 12  1  0
 12 13  1  0
 13  5  1  0
M  END
$$$$
