CZGNRKPPNUUZNJ-UHFFFAOYSA-N_3RCD_m1
     RDKit          3D

 15 16  0  0  0  0  0  0  0  0999 V2000
    8.8680   -3.3710   32.1450 O   0  0  0  0  0  0  0  0  0  0  0  0
    8.2880   -2.2920   32.0760 C   0  0  0  0  0  0  0  0  0  0  0  0
    7.0320   -2.0200   32.8700 C   0  0  0  0  0  0  0  0  0  0  0  0
    6.5660   -0.3300   32.4430 S   0  0  0  0  0  0  0  0  0  0  0  0
    7.9500   -0.2090   31.3760 C   0  0  0  0  0  0  0  0  0  0  0  0
    8.0700    0.9980   30.7390 N   0  0  0  0  0  0  0  0  0  0  0  0
    9.0610    1.3070   29.8620 N   0  0  0  0  0  0  0  0  0  0  0  0
   10.1620    1.8430   30.3030 C   0  0  0  0  0  0  0  0  0  0  0  0
   11.2170    2.1710   29.2660 C   0  0  0  0  0  0  0  0  0  0  0  0
   12.5140    2.6200   29.9260 C   0  0  0  0  0  0  0  0  0  0  0  0
   13.2060    1.5130   30.7160 C   0  0  0  0  0  0  0  0  0  0  0  0
   12.8590    1.4810   32.1970 C   0  0  0  0  0  0  0  0  0  0  0  0
   11.3860    1.2050   32.4950 C   0  0  0  0  0  0  0  0  0  0  0  0
   10.4320    2.1440   31.7680 C   0  0  0  0  0  0  0  0  0  0  0  0
    8.7110   -1.2470   31.2920 N   0  0  0  0  0  0  0  0  0  0  0  0
  1  2  2  0
  2  3  1  0
  3  4  1  0
  4  5  1  0
  5  6  1  0
  6  7  1  0
  7  8  2  3
  8  9  1  0
  9 10  1  0
 10 11  1  0
 11 12  1  0
 12 13  1  0
 13 14  1  0
  5 15  2  0
 15  2  1  0
 14  8  1  0
M  END
$$$$
