DBPSKVDGBPKVFF-YCRPNKLZSA-N_6N7A_m9
     RDKit          3D

 28 32  0  0  0  0  0  0  0  0999 V2000
    3.3040  -25.9490   21.1520 C   0  0  0  0  0  0  0  0  0  0  0  0
    4.4910  -25.3300   21.8300 C   0  0  0  0  0  0  0  0  0  0  0  0
    4.6890  -24.0080   21.5720 N   0  0  0  0  0  0  0  0  0  0  0  0
    5.7400  -23.3660   22.1280 C   0  0  0  0  0  0  0  0  0  0  0  0
    5.9230  -22.0080   21.8650 N   0  0  0  0  0  0  0  0  0  0  0  0
    4.9830  -21.1070   22.5280 C   0  0  0  0  0  0  0  0  0  0  0  0
    5.5810  -19.7040   22.5790 C   0  0  0  0  0  0  0  0  0  0  0  0
    5.9860  -19.1980   21.1810 C   0  0  1  0  0  0  0  0  0  0  0  0
    6.6500  -17.8130   21.2860 C   0  0  0  0  0  0  0  0  0  0  0  0
    8.0720  -17.8680   21.8480 C   0  0  0  0  0  0  0  0  0  0  0  0
    8.8650  -18.8580   21.1240 N   0  0  0  0  0  0  0  0  0  0  0  0
   10.2490  -18.7790   21.3120 C   0  0  0  0  0  0  0  0  0  0  0  0
   11.0250  -18.2280   20.3380 N   0  0  0  0  0  0  0  0  0  0  0  0
   12.3600  -18.1670   20.5100 C   0  0  0  0  0  0  0  0  0  0  0  0
   13.0800  -18.5750   21.5660 N   0  0  0  0  0  0  0  0  0  0  0  0
   12.2860  -19.0770   22.5220 C   0  0  0  0  0  0  0  0  0  0  0  0
   12.7360  -19.5490   23.7250 N   0  0  0  0  0  0  0  0  0  0  0  0
   11.6740  -19.9610   24.4890 C   0  0  0  0  0  0  0  0  0  0  0  0
   10.5260  -19.7520   23.7520 C   0  0  0  0  0  0  0  0  0  0  0  0
   10.9060  -19.2100   22.4870 C   0  0  0  0  0  0  0  0  0  0  0  0
    8.3200  -20.2200   21.0680 C   0  0  0  0  0  0  0  0  0  0  0  0
    6.9040  -20.2120   20.4410 C   0  0  2  0  0  0  0  0  0  0  0  0
    7.0200  -19.8330   18.9420 C   0  0  0  0  0  0  0  0  0  0  0  0
    6.3090  -21.6400   20.5020 C   0  0  0  0  0  0  0  0  0  0  0  0
    6.6070  -24.0440   22.9820 C   0  0  0  0  0  0  0  0  0  0  0  0
    6.4060  -25.3970   23.2520 C   0  0  0  0  0  0  0  0  0  0  0  0
    5.3330  -26.0560   22.6670 C   0  0  0  0  0  0  0  0  0  0  0  0
    5.0800  -27.8930   23.0500 Br  0  0  0  0  0  0  0  0  0  0  0  0
  1  2  1  0
  2  3  2  0
  3  4  1  0
  4  5  1  0
  5  6  1  0
  6  7  1  0
  8  7  1  1
  8  9  1  0
  9 10  1  0
 10 11  1  0
 11 12  1  0
 12 13  2  0
 13 14  1  0
 14 15  2  0
 15 16  1  0
 16 17  1  0
 17 18  1  0
 18 19  2  0
 19 20  1  0
 11 21  1  0
 21 22  1  0
 22 23  1  6
 22 24  1  0
  4 25  2  0
 25 26  1  0
 26 27  2  0
 27 28  1  0
 27  2  1  0
 24  5  1  0
 22  8  1  0
 20 12  1  0
 20 16  2  0
M  END
$$$$
