DBPSKVDGBPKVFF-YCRPNKLZSA-N_6N7A_m3
     RDKit          3D

 28 32  0  0  0  0  0  0  0  0999 V2000
    7.6370  -27.2510   24.3120 C   0  0  0  0  0  0  0  0  0  0  0  0
    6.7660  -26.4660   23.3760 C   0  0  0  0  0  0  0  0  0  0  0  0
    7.2560  -25.2510   23.0000 N   0  0  0  0  0  0  0  0  0  0  0  0
    6.5370  -24.4660   22.1680 C   0  0  0  0  0  0  0  0  0  0  0  0
    7.0570  -23.2310   21.7820 N   0  0  0  0  0  0  0  0  0  0  0  0
    8.3860  -23.2700   21.1780 C   0  0  0  0  0  0  0  0  0  0  0  0
    8.6070  -21.9980   20.3640 C   0  0  0  0  0  0  0  0  0  0  0  0
    8.3870  -20.7270   21.2080 C   0  0  1  0  0  0  0  0  0  0  0  0
    8.5490  -19.4700   20.3340 C   0  0  0  0  0  0  0  0  0  0  0  0
    7.3650  -19.2370   19.3920 C   0  0  0  0  0  0  0  0  0  0  0  0
    6.1080  -19.2920   20.1330 N   0  0  0  0  0  0  0  0  0  0  0  0
    4.9900  -18.7780   19.4680 C   0  0  0  0  0  0  0  0  0  0  0  0
    5.0430  -18.5940   18.1200 N   0  0  0  0  0  0  0  0  0  0  0  0
    3.9720  -18.0820   17.4800 C   0  0  0  0  0  0  0  0  0  0  0  0
    2.7890  -17.7220   17.9990 N   0  0  0  0  0  0  0  0  0  0  0  0
    2.7550  -17.9500   19.3190 C   0  0  0  0  0  0  0  0  0  0  0  0
    1.6690  -17.7050   20.1150 N   0  0  0  0  0  0  0  0  0  0  0  0
    1.9460  -18.0750   21.4060 C   0  0  0  0  0  0  0  0  0  0  0  0
    3.2370  -18.5590   21.4310 C   0  0  0  0  0  0  0  0  0  0  0  0
    3.7720  -18.4630   20.1110 C   0  0  0  0  0  0  0  0  0  0  0  0
    5.8630  -20.5100   20.9170 C   0  0  0  0  0  0  0  0  0  0  0  0
    7.0100  -20.7420   21.9310 C   0  0  2  0  0  0  0  0  0  0  0  0
    6.9600  -19.6310   23.0100 C   0  0  0  0  0  0  0  0  0  0  0  0
    6.7840  -22.0900   22.6580 C   0  0  0  0  0  0  0  0  0  0  0  0
    5.3090  -24.9030   21.6750 C   0  0  0  0  0  0  0  0  0  0  0  0
    4.8060  -26.1470   22.0540 C   0  0  0  0  0  0  0  0  0  0  0  0
    5.5420  -26.9440   22.9200 C   0  0  0  0  0  0  0  0  0  0  0  0
    4.8370  -28.6290   23.4190 Br  0  0  0  0  0  0  0  0  0  0  0  0
  1  2  1  0
  2  3  2  0
  3  4  1  0
  4  5  1  0
  5  6  1  0
  6  7  1  0
  8  7  1  6
  8  9  1  0
  9 10  1  0
 10 11  1  0
 11 12  1  0
 12 13  2  0
 13 14  1  0
 14 15  2  0
 15 16  1  0
 16 17  1  0
 17 18  1  0
 18 19  2  0
 19 20  1  0
 11 21  1  0
 21 22  1  0
 22 23  1  1
 22 24  1  0
  4 25  2  0
 25 26  1  0
 26 27  2  0
 27 28  1  0
 27  2  1  0
 24  5  1  0
 22  8  1  0
 20 12  1  0
 20 16  2  0
M  END
$$$$
