DBXQFQRUXGQRKN-UHFFFAOYSA-N_6LXA_m6
     RDKit          3D

 37 39  0  0  0  0  0  0  0  0999 V2000
    2.9830    8.5910   -6.9610 C   0  0  0  0  0  0  0  0  0  0  0  0
    2.2620    7.8610   -5.8390 C   0  0  0  0  0  0  0  0  0  0  0  0
    2.9900    6.5730   -5.4510 C   0  0  0  0  0  0  0  0  0  0  0  0
    3.2070    6.4540   -3.9400 C   0  0  0  0  0  0  0  0  0  0  0  0
    4.6200    6.7910   -3.5670 N   0  0  0  0  0  0  0  0  0  0  0  0
    5.3060    5.7630   -2.8000 C   0  0  0  0  0  0  0  0  0  0  0  0
    4.8540    5.4280   -1.5140 C   0  0  0  0  0  0  0  0  0  0  0  0
    5.4820    4.4260   -0.7830 C   0  0  0  0  0  0  0  0  0  0  0  0
    6.5600    3.7420   -1.3350 C   0  0  0  0  0  0  0  0  0  0  0  0
    7.0360    4.0520   -2.6210 C   0  0  0  0  0  0  0  0  0  0  0  0
    8.1650    3.2730   -3.1500 C   0  0  0  0  0  0  0  0  0  0  0  0
    9.1360    2.7420   -2.2870 C   0  0  0  0  0  0  0  0  0  0  0  0
   10.2180    2.0160   -2.7890 C   0  0  0  0  0  0  0  0  0  0  0  0
   10.3380    1.8170   -4.1630 C   0  0  0  0  0  0  0  0  0  0  0  0
   11.6720    0.9270   -4.7840 Cl  0  0  0  0  0  0  0  0  0  0  0  0
    9.3870    2.3390   -5.0370 C   0  0  0  0  0  0  0  0  0  0  0  0
    8.3060    3.0660   -4.5320 C   0  0  0  0  0  0  0  0  0  0  0  0
    6.4150    5.0920   -3.3590 C   0  0  0  0  0  0  0  0  0  0  0  0
    6.9090    5.4390   -4.7420 C   0  0  0  0  0  0  0  0  0  0  0  0
    4.8160    8.3680   -2.8740 S   0  0  0  0  0  0  0  0  0  0  0  0
    3.5520    9.0590   -3.0220 O   0  0  0  0  0  0  0  0  0  0  0  0
    5.4430    8.2370   -1.5730 O   0  0  0  0  0  0  0  0  0  0  0  0
    6.0580    9.0990   -3.9530 C   0  0  0  0  0  0  0  0  0  0  0  0
    5.8970    8.8050   -5.3180 C   0  0  0  0  0  0  0  0  0  0  0  0
    6.7730    9.3260   -6.2600 C   0  0  0  0  0  0  0  0  0  0  0  0
    7.8310   10.1340   -5.8480 C   0  0  0  0  0  0  0  0  0  0  0  0
    8.6760   10.6800   -6.7810 O   0  0  0  0  0  0  0  0  0  0  0  0
    9.7530    9.8110   -7.1650 C   0  0  1  0  0  0  0  0  0  0  0  0
    9.4220    9.2410   -8.5510 C   0  0  0  0  0  0  0  0  0  0  0  0
   10.1420    7.9270   -8.8250 C   0  0  0  0  0  0  0  0  0  0  0  0
   11.0790   10.5700   -7.2460 C   0  0  0  0  0  0  0  0  0  0  0  0
   11.5280   11.2010   -8.1880 O   0  0  0  0  0  0  0  0  0  0  0  0
   11.7890   10.4960   -6.0970 O   0  0  0  0  0  0  0  0  0  0  0  0
    7.9950   10.4770   -4.4910 C   0  0  0  0  0  0  0  0  0  0  0  0
    9.1040   11.4240   -4.0940 C   0  0  0  0  0  0  0  0  0  0  0  0
    7.1280    9.9120   -3.5120 C   0  0  0  0  0  0  0  0  0  0  0  0
    7.3580   10.1840   -2.0470 C   0  0  0  0  0  0  0  0  0  0  0  0
  1  2  1  0
  2  3  1  0
  3  4  1  0
  4  5  1  0
  5  6  1  0
  6  7  2  0
  7  8  1  0
  8  9  2  0
  9 10  1  0
 10 11  1  0
 11 12  2  0
 12 13  1  0
 13 14  2  0
 14 15  1  0
 14 16  1  0
 16 17  2  0
 10 18  2  0
 18 19  1  0
  5 20  1  0
 20 21  2  0
 20 22  2  0
 20 23  1  0
 23 24  2  0
 24 25  1  0
 25 26  2  0
 26 27  1  0
 27 28  1  0
 28 29  1  6
 29 30  1  0
 28 31  1  0
 31 32  2  0
 31 33  1  0
 26 34  1  0
 34 35  1  0
 34 36  2  0
 36 37  1  0
 18  6  1  0
 36 23  1  0
 17 11  1  0
M  END
$$$$
