DDWXRYBAOHVDTA-UHFFFAOYSA-N_6N7A_m7
     RDKit          3D

 27 29  0  0  0  0  0  0  0  0999 V2000
    2.2060  -26.4320   20.6260 N   0  0  0  0  0  0  0  0  0  0  0  0
    3.2420  -26.7930   21.4400 C   0  0  0  0  0  0  0  0  0  0  0  0
    3.3340  -27.9200   21.9160 O   0  0  0  0  0  0  0  0  0  0  0  0
    4.2050  -25.7330   21.6710 C   0  0  0  0  0  0  0  0  0  0  0  0
    4.0560  -24.4370   21.1990 N   0  0  0  0  0  0  0  0  0  0  0  0
    5.1480  -23.8240   21.6140 C   0  0  0  0  0  0  0  0  0  0  0  0
    5.5680  -22.4460   21.4000 C   0  0  0  0  0  0  0  0  0  0  0  0
    5.9380  -22.0100   20.1220 C   0  0  0  0  0  0  0  0  0  0  0  0
    5.9240  -22.8540   19.0780 F   0  0  0  0  0  0  0  0  0  0  0  0
    6.3470  -20.6960   19.8820 C   0  0  0  0  0  0  0  0  0  0  0  0
    6.3900  -19.7780   20.9280 C   0  0  0  0  0  0  0  0  0  0  0  0
    6.0220  -20.1860   22.2070 C   0  0  0  0  0  0  0  0  0  0  0  0
    5.6160  -21.5040   22.4330 C   0  0  0  0  0  0  0  0  0  0  0  0
    5.2520  -21.8300   23.6820 F   0  0  0  0  0  0  0  0  0  0  0  0
    6.0010  -24.6270   22.3220 O   0  0  0  0  0  0  0  0  0  0  0  0
    5.3920  -25.8470   22.3690 C   0  0  0  0  0  0  0  0  0  0  0  0
    5.9770  -26.8970   22.9870 N   0  0  0  0  0  0  0  0  0  0  0  0
    7.0680  -26.9510   23.8750 C   0  0  0  0  0  0  0  0  0  0  0  0
    7.3210  -28.1680   24.5360 C   0  0  0  0  0  0  0  0  0  0  0  0
    8.4000  -28.3170   25.4130 C   0  0  0  0  0  0  0  0  0  0  0  0
    9.2470  -27.2340   25.6440 C   0  0  0  0  0  0  0  0  0  0  0  0
   10.6320  -27.4150   26.7260 S   0  0  0  0  0  0  0  0  0  0  0  0
   11.6820  -28.3370   25.7950 N   0  0  0  0  0  0  0  0  0  0  0  0
   10.2610  -28.2480   27.8460 O   0  0  0  0  0  0  0  0  0  0  0  0
   11.2760  -26.1330   26.8940 O   0  0  0  0  0  0  0  0  0  0  0  0
    9.0310  -26.0210   24.9910 C   0  0  0  0  0  0  0  0  0  0  0  0
    7.9470  -25.8880   24.1150 C   0  0  0  0  0  0  0  0  0  0  0  0
  1  2  1  0
  2  3  2  0
  2  4  1  0
  4  5  1  0
  5  6  2  0
  6  7  1  0
  7  8  2  0
  8  9  1  0
  8 10  1  0
 10 11  2  0
 11 12  1  0
 12 13  2  0
 13 14  1  0
  6 15  1  0
 15 16  1  0
 16 17  1  0
 17 18  1  0
 18 19  2  0
 19 20  1  0
 20 21  2  0
 21 22  1  0
 22 23  1  0
 22 24  2  0
 22 25  2  0
 21 26  1  0
 26 27  2  0
 16  4  2  0
 27 18  1  0
 13  7  1  0
M  END
$$$$
