DDWXRYBAOHVDTA-UHFFFAOYSA-N_8BXH_m7
     RDKit          3D

 27 29  0  0  0  0  0  0  0  0999 V2000
  -12.2010   19.6820   21.2700 N   0  0  0  0  0  0  0  0  0  0  0  0
  -13.4890   19.2280   21.2680 C   0  0  0  0  0  0  0  0  0  0  0  0
  -14.4030   19.8570   21.7920 O   0  0  0  0  0  0  0  0  0  0  0  0
  -13.6630   17.9570   20.5900 C   0  0  0  0  0  0  0  0  0  0  0  0
  -12.9930   16.7950   20.9430 N   0  0  0  0  0  0  0  0  0  0  0  0
  -13.4270   15.9050   20.0720 C   0  0  0  0  0  0  0  0  0  0  0  0
  -13.0580   14.5040   19.9260 C   0  0  0  0  0  0  0  0  0  0  0  0
  -14.0280   13.5010   20.0450 C   0  0  0  0  0  0  0  0  0  0  0  0
  -15.3080   13.8120   20.3060 F   0  0  0  0  0  0  0  0  0  0  0  0
  -13.7090   12.1470   19.9120 C   0  0  0  0  0  0  0  0  0  0  0  0
  -12.3970   11.7650   19.6500 C   0  0  0  0  0  0  0  0  0  0  0  0
  -11.4150   12.7430   19.5220 C   0  0  0  0  0  0  0  0  0  0  0  0
  -11.7480   14.0930   19.6580 C   0  0  0  0  0  0  0  0  0  0  0  0
  -10.7620   14.9880   19.5030 F   0  0  0  0  0  0  0  0  0  0  0  0
  -14.3330   16.4020   19.1740 O   0  0  0  0  0  0  0  0  0  0  0  0
  -14.4940   17.7140   19.5130 C   0  0  0  0  0  0  0  0  0  0  0  0
  -15.3190   18.5210   18.8110 N   0  0  0  0  0  0  0  0  0  0  0  0
  -16.5640   19.0850   19.1500 C   0  0  0  0  0  0  0  0  0  0  0  0
  -17.5410   18.2380   19.7060 C   0  0  0  0  0  0  0  0  0  0  0  0
  -18.7940   18.7210   20.0970 C   0  0  0  0  0  0  0  0  0  0  0  0
  -19.0880   20.0740   19.9300 C   0  0  0  0  0  0  0  0  0  0  0  0
  -20.6550   20.7050   20.4470 S   0  0  0  0  0  0  0  0  0  0  0  0
  -21.5000   20.7670   18.9980 N   0  0  0  0  0  0  0  0  0  0  0  0
  -20.5030   22.0750   20.8760 O   0  0  0  0  0  0  0  0  0  0  0  0
  -21.3260   19.7110   21.2530 O   0  0  0  0  0  0  0  0  0  0  0  0
  -18.1330   20.9390   19.3980 C   0  0  0  0  0  0  0  0  0  0  0  0
  -16.8830   20.4410   19.0120 C   0  0  0  0  0  0  0  0  0  0  0  0
  1  2  1  0
  2  3  2  0
  2  4  1  0
  4  5  1  0
  5  6  2  0
  6  7  1  0
  7  8  2  0
  8  9  1  0
  8 10  1  0
 10 11  2  0
 11 12  1  0
 12 13  2  0
 13 14  1  0
  6 15  1  0
 15 16  1  0
 16 17  1  0
 17 18  1  0
 18 19  2  0
 19 20  1  0
 20 21  2  0
 21 22  1  0
 22 23  1  0
 22 24  2  0
 22 25  2  0
 21 26  1  0
 26 27  2  0
 16  4  2  0
 27 18  1  0
 13  7  1  0
M  END
$$$$
