DFHODIQMOCATOE-UHFFFAOYSA-N_6N7A_m8
     RDKit          3D

 25 27  0  0  0  0  0  0  0  0999 V2000
    4.8280  -28.6420   23.3900 C   0  0  0  0  0  0  0  0  0  0  0  0
    4.4370  -27.4460   22.5890 C   0  0  0  0  0  0  0  0  0  0  0  0
    3.2610  -27.4410   21.8690 C   0  0  0  0  0  0  0  0  0  0  0  0
    2.8280  -26.4030   21.1330 N   0  0  0  0  0  0  0  0  0  0  0  0
    3.5980  -25.3120   21.1080 C   0  0  0  0  0  0  0  0  0  0  0  0
    3.1390  -24.2670   20.3630 N   0  0  0  0  0  0  0  0  0  0  0  0
    4.0250  -23.4000   19.6280 C   0  0  0  0  0  0  0  0  0  0  0  0
    4.1990  -22.0580   20.3790 C   0  0  0  0  0  0  0  0  0  0  0  0
    5.5620  -21.8200   20.9070 N   0  0  0  0  0  0  0  0  0  0  0  0
    6.2700  -20.7840   20.1210 C   0  0  0  0  0  0  0  0  0  0  0  0
    5.7850  -19.3490   20.3950 C   0  0  0  0  0  0  0  0  0  0  0  0
    5.8550  -19.0290   21.7890 O   0  0  0  0  0  0  0  0  0  0  0  0
    5.0980  -19.9650   22.5660 C   0  0  0  0  0  0  0  0  0  0  0  0
    5.5750  -21.4070   22.3290 C   0  0  0  0  0  0  0  0  0  0  0  0
    4.7620  -25.2130   21.7550 N   0  0  0  0  0  0  0  0  0  0  0  0
    5.1760  -26.2810   22.4760 C   0  0  0  0  0  0  0  0  0  0  0  0
    6.4630  -26.0890   23.1230 C   0  0  0  0  0  0  0  0  0  0  0  0
    7.1760  -26.8710   24.0590 C   0  0  0  0  0  0  0  0  0  0  0  0
    8.3530  -26.3320   24.3920 N   0  0  0  0  0  0  0  0  0  0  0  0
    8.4080  -25.2140   23.6460 N   0  0  0  0  0  0  0  0  0  0  0  0
    9.5800  -24.3640   23.7180 C   0  0  0  0  0  0  0  0  0  0  0  0
    9.2190  -22.9010   23.5130 C   0  0  0  0  0  0  0  0  0  0  0  0
    9.4250  -22.5250   22.1120 C   0  0  0  0  0  0  0  0  0  0  0  0
    9.6040  -22.2420   21.0010 N   0  0  0  0  0  0  0  0  0  0  0  0
    7.3070  -25.0270   22.8660 C   0  0  0  0  0  0  0  0  0  0  0  0
  1  2  1  0
  2  3  2  0
  3  4  1  0
  4  5  2  0
  5  6  1  0
  6  7  1  0
  7  8  1  0
  8  9  1  0
  9 10  1  0
 10 11  1  0
 11 12  1  0
 12 13  1  0
 13 14  1  0
  5 15  1  0
 15 16  2  0
 16 17  1  0
 17 18  1  0
 18 19  2  0
 19 20  1  0
 20 21  1  0
 21 22  1  0
 22 23  1  0
 23 24  3  0
 20 25  1  0
 16  2  1  0
 25 17  2  0
 14  9  1  0
M  END
$$$$
