DGORACVWOLFYBN-UHFFFAOYSA-N_3RCD_m4
     RDKit          3D

 30 32  0  0  0  0  0  0  0  0999 V2000
   17.9360    1.0990   26.1250 O   0  0  0  0  0  0  0  0  0  0  0  0
   16.8640    1.2070   26.7150 C   0  0  0  0  0  0  0  0  0  0  0  0
   16.0770    2.4950   26.8470 C   0  0  0  0  0  0  0  0  0  0  0  0
   14.9430    2.6220   25.8310 C   0  0  0  0  0  0  0  0  0  0  0  0
   14.9240    3.9920   25.1460 C   0  0  0  0  0  0  0  0  0  0  0  0
   14.0350    4.9790   25.9040 C   0  0  0  0  0  0  0  0  0  0  0  0
   12.5560    4.7190   25.6270 C   0  0  0  0  0  0  0  0  0  0  0  0
   11.7370    4.7000   26.9150 C   0  0  0  0  0  0  0  0  0  0  0  0
   11.5270    3.3340   27.2780 O   0  0  0  0  0  0  0  0  0  0  0  0
   11.9960    2.9340   28.4960 C   0  0  0  0  0  0  0  0  0  0  0  0
   13.2570    3.1860   29.0160 C   0  0  0  0  0  0  0  0  0  0  0  0
   13.5910    2.7150   30.2910 C   0  0  0  0  0  0  0  0  0  0  0  0
   12.7000    1.9850   31.0670 C   0  0  0  0  0  0  0  0  0  0  0  0
   13.0950    1.5810   32.2770 N   0  0  0  0  0  0  0  0  0  0  0  0
   12.2040    0.8920   32.9970 C   0  0  0  0  0  0  0  0  0  0  0  0
   10.9670    0.5630   32.6180 N   0  0  0  0  0  0  0  0  0  0  0  0
   10.5820    0.9540   31.3880 C   0  0  0  0  0  0  0  0  0  0  0  0
    9.2910    0.5980   30.9340 N   0  0  0  0  0  0  0  0  0  0  0  0
    8.0310    0.7500   31.5400 C   0  0  0  0  0  0  0  0  0  0  0  0
    7.2030   -0.3340   31.8600 C   0  0  0  0  0  0  0  0  0  0  0  0
    5.9650   -0.1420   32.4840 C   0  0  0  0  0  0  0  0  0  0  0  0
    5.5500    1.1430   32.8040 C   0  0  0  0  0  0  0  0  0  0  0  0
    4.3620    1.3090   33.4040 F   0  0  0  0  0  0  0  0  0  0  0  0
    6.3590    2.2350   32.5100 C   0  0  0  0  0  0  0  0  0  0  0  0
    5.8590    3.8340   32.9110 Cl  0  0  0  0  0  0  0  0  0  0  0  0
    7.5960    2.0400   31.8870 C   0  0  0  0  0  0  0  0  0  0  0  0
   11.4280    1.7080   30.5490 C   0  0  0  0  0  0  0  0  0  0  0  0
   11.0880    2.2000   29.2620 C   0  0  0  0  0  0  0  0  0  0  0  0
   16.2530    0.1310   27.3070 N   0  0  0  0  0  0  0  0  0  0  0  0
   16.9220   -1.1090   27.2150 O   0  0  0  0  0  0  0  0  0  0  0  0
  1  2  2  0
  2  3  1  0
  3  4  1  0
  4  5  1  0
  5  6  1  0
  6  7  1  0
  7  8  1  0
  8  9  1  0
  9 10  1  0
 10 11  2  0
 11 12  1  0
 12 13  2  0
 13 14  1  0
 14 15  2  0
 15 16  1  0
 16 17  2  0
 17 18  1  0
 18 19  1  0
 19 20  2  0
 20 21  1  0
 21 22  2  0
 22 23  1  0
 22 24  1  0
 24 25  1  0
 24 26  2  0
 17 27  1  0
 27 28  2  0
  2 29  1  0
 29 30  1  0
 28 10  1  0
 27 13  1  0
 26 19  1  0
M  END
$$$$
