DGVCIMUJVPVQEX-KBKYJPHKSA-N_3RCD_m1
     RDKit          3D

 29 32  0  0  0  0  0  0  0  0999 V2000
    9.7290   -2.4890   31.4080 C   0  0  0  0  0  0  0  0  0  0  0  0
    8.6610   -2.3800   30.4730 O   0  0  0  0  0  0  0  0  0  0  0  0
    8.2190   -1.0500   30.4530 N   0  0  0  0  0  0  0  0  0  0  0  0
    8.5980   -0.4680   31.5500 C   0  0  0  0  0  0  0  0  0  0  0  0
    8.2890    0.9430   31.8460 C   0  0  0  0  0  0  0  0  0  0  0  0
    6.9740    1.3220   32.0910 C   0  0  0  0  0  0  0  0  0  0  0  0
    5.9000    0.4470   32.0620 N   0  0  0  0  0  0  0  0  0  0  0  0
    6.6380    2.5790   32.4140 N   0  0  0  0  0  0  0  0  0  0  0  0
    7.6370    3.4660   32.4530 C   0  0  0  0  0  0  0  0  0  0  0  0
    8.9260    3.2110   32.2090 N   0  0  0  0  0  0  0  0  0  0  0  0
    9.2670    1.9420   31.9070 C   0  0  0  0  0  0  0  0  0  0  0  0
   10.6240    1.6210   31.6850 N   0  0  0  0  0  0  0  0  0  0  0  0
   11.5440    1.9320   30.6700 C   0  0  0  0  0  0  0  0  0  0  0  0
   12.8980    2.1810   30.8940 C   0  0  0  0  0  0  0  0  0  0  0  0
   13.7870    2.4900   29.8510 C   0  0  0  0  0  0  0  0  0  0  0  0
   13.2840    2.5460   28.5440 C   0  0  0  0  0  0  0  0  0  0  0  0
   11.9370    2.2990   28.2730 C   0  0  0  0  0  0  0  0  0  0  0  0
   11.7550    2.4250   26.8710 C   0  0  0  0  0  0  0  0  0  0  0  0
   12.9720    2.7420   26.3170 C   0  0  0  0  0  0  0  0  0  0  0  0
   13.8910    2.8280   27.3350 N   0  0  0  0  0  0  0  0  0  0  0  0
   15.3060    3.1270   27.1340 C   0  0  0  0  0  0  0  0  0  0  0  0
   16.0910    1.9000   26.7410 C   0  0  0  0  0  0  0  0  0  0  0  0
   17.1260    1.9770   25.7920 C   0  0  0  0  0  0  0  0  0  0  0  0
   17.8530    0.8400   25.4330 C   0  0  0  0  0  0  0  0  0  0  0  0
   17.5570   -0.3890   26.0190 C   0  0  0  0  0  0  0  0  0  0  0  0
   16.5350   -0.4700   26.9570 C   0  0  0  0  0  0  0  0  0  0  0  0
   16.2490   -1.6510   27.5190 F   0  0  0  0  0  0  0  0  0  0  0  0
   15.8040    0.6570   27.3220 C   0  0  0  0  0  0  0  0  0  0  0  0
   11.0710    1.9900   29.3440 C   0  0  0  0  0  0  0  0  0  0  0  0
  1  2  1  0
  2  3  1  0
  3  4  2  0
  4  5  1  0
  5  6  2  0
  6  7  1  0
  6  8  1  0
  8  9  2  0
  9 10  1  0
 10 11  2  0
 11 12  1  0
 12 13  1  0
 13 14  2  0
 14 15  1  0
 15 16  2  0
 16 17  1  0
 17 18  1  0
 18 19  2  0
 19 20  1  0
 20 21  1  0
 21 22  1  0
 22 23  2  0
 23 24  1  0
 24 25  2  0
 25 26  1  0
 26 27  1  0
 26 28  2  0
 17 29  2  0
 11  5  1  0
 29 13  1  0
 20 16  1  0
 28 22  1  0
M  END
$$$$
