DHQHCSROVOIZIA-UHFFFAOYSA-N_4EY7_m3
     RDKit          3D

 24 27  0  0  0  0  0  0  0  0999 V2000
  -22.7240  -40.1430   18.6530 O   0  0  0  0  0  0  0  0  0  0  0  0
  -21.6650  -40.3740   19.4870 C   0  0  0  0  0  0  0  0  0  0  0  0
  -21.5320  -41.5610   20.1950 C   0  0  0  0  0  0  0  0  0  0  0  0
  -20.4270  -41.7330   21.0320 C   0  0  0  0  0  0  0  0  0  0  0  0
  -19.4530  -40.7250   21.1590 C   0  0  0  0  0  0  0  0  0  0  0  0
  -18.2720  -40.9170   22.0810 C   0  0  0  0  0  0  0  0  0  0  0  0
  -18.3530  -42.2400   22.6830 N   0  0  0  0  0  0  0  0  0  0  0  0
  -18.1320  -42.3100   24.0690 C   0  0  0  0  0  0  0  0  0  0  0  0
  -16.8870  -42.7500   24.5570 C   0  0  0  0  0  0  0  0  0  0  0  0
  -16.6880  -42.7410   25.9390 C   0  0  0  0  0  0  0  0  0  0  0  0
  -17.6380  -42.3520   26.8210 N   0  0  0  0  0  0  0  0  0  0  0  0
  -18.8250  -41.9400   26.3580 C   0  0  0  0  0  0  0  0  0  0  0  0
  -19.7840  -41.5400   27.2800 C   0  0  0  0  0  0  0  0  0  0  0  0
  -21.0450  -41.0870   26.8890 C   0  0  0  0  0  0  0  0  0  0  0  0
  -21.3630  -41.0300   25.5410 C   0  0  0  0  0  0  0  0  0  0  0  0
  -20.4190  -41.4270   24.5960 C   0  0  0  0  0  0  0  0  0  0  0  0
  -19.1370  -41.8930   24.9840 C   0  0  0  0  0  0  0  0  0  0  0  0
  -15.4070  -43.2370   26.5590 C   0  0  0  0  0  0  0  0  0  0  0  0
  -14.2420  -43.3110   25.5800 C   0  0  0  0  0  0  0  0  0  0  0  0
  -14.6870  -44.0030   24.3000 C   0  0  0  0  0  0  0  0  0  0  0  0
  -15.7900  -43.1960   23.6180 C   0  0  0  0  0  0  0  0  0  0  0  0
  -19.6080  -39.5310   20.4410 C   0  0  0  0  0  0  0  0  0  0  0  0
  -20.7090  -39.3690   19.6130 C   0  0  0  0  0  0  0  0  0  0  0  0
  -20.8510  -38.2030   18.9160 O   0  0  0  0  0  0  0  0  0  0  0  0
  1  2  1  0
  2  3  2  0
  3  4  1  0
  4  5  2  0
  5  6  1  0
  6  7  1  0
  7  8  1  0
  8  9  2  0
  9 10  1  0
 10 11  2  0
 11 12  1  0
 12 13  2  0
 13 14  1  0
 14 15  2  0
 15 16  1  0
 16 17  2  0
 10 18  1  0
 18 19  1  0
 19 20  1  0
 20 21  1  0
  5 22  1  0
 22 23  2  0
 23 24  1  0
 23  2  1  0
 17  8  1  0
 21  9  1  0
 17 12  1  0
M  END
$$$$
