DIJNMZDNCSWBBP-QFIPXVFZSA-N_4UDW_m8
     RDKit          3D

 36 38  0  0  0  0  0  0  0  0999 V2000
  136.3960  -15.5200  166.3490 C   0  0  0  0  0  0  0  0  0  0  0  0
  135.1350  -16.2090  166.8640 C   0  0  0  0  0  0  0  0  0  0  0  0
  134.7470  -17.3850  165.9580 C   0  0  0  0  0  0  0  0  0  0  0  0
  133.4490  -18.0450  166.4200 C   0  0  0  0  0  0  0  0  0  0  0  0
  132.3720  -17.0670  166.5720 N   0  0  0  0  0  0  0  0  0  0  0  0
  131.0590  -17.2360  166.1490 C   0  0  0  0  0  0  0  0  0  0  0  0
  130.1900  -16.3800  166.3550 O   0  0  0  0  0  0  0  0  0  0  0  0
  130.6750  -18.5060  165.3700 C   0  0  2  0  0  0  0  0  0  0  0  0
  131.3400  -18.4670  163.9890 C   0  0  0  0  0  0  0  0  0  0  0  0
  131.4100  -17.0680  163.4150 C   0  0  0  0  0  0  0  0  0  0  0  0
  132.6480  -16.4310  163.2520 C   0  0  0  0  0  0  0  0  0  0  0  0
  132.7180  -15.1320  162.7510 C   0  0  0  0  0  0  0  0  0  0  0  0
  131.5510  -14.4500  162.4040 C   0  0  0  0  0  0  0  0  0  0  0  0
  130.3110  -15.0740  162.5570 C   0  0  0  0  0  0  0  0  0  0  0  0
  129.0700  -14.3500  162.1730 C   0  0  0  0  0  0  0  0  0  0  0  0
  128.2370  -14.8220  161.2990 N   0  0  0  0  0  0  0  0  0  0  0  0
  128.7670  -13.1530  162.7310 N   0  0  0  0  0  0  0  0  0  0  0  0
  130.2390  -16.3780  163.0650 C   0  0  0  0  0  0  0  0  0  0  0  0
  129.1910  -18.4810  165.2200 N   0  0  0  0  0  0  0  0  0  0  0  0
  128.4270  -19.9650  165.0290 S   0  0  0  0  0  0  0  0  0  0  0  0
  129.2580  -20.8030  164.1930 O   0  0  0  0  0  0  0  0  0  0  0  0
  127.9840  -20.3850  166.3390 O   0  0  0  0  0  0  0  0  0  0  0  0
  126.9930  -19.4880  164.1030 C   0  0  0  0  0  0  0  0  0  0  0  0
  126.2860  -20.4550  163.3860 C   0  0  0  0  0  0  0  0  0  0  0  0
  125.1430  -20.0780  162.6880 C   0  0  0  0  0  0  0  0  0  0  0  0
  124.7090  -18.7460  162.7110 C   0  0  0  0  0  0  0  0  0  0  0  0
  125.4230  -17.7750  163.4180 C   0  0  0  0  0  0  0  0  0  0  0  0
  125.0510  -16.4170  163.4840 N   0  0  0  0  0  0  0  0  0  0  0  0
  125.8230  -15.3550  163.9270 C   0  0  0  0  0  0  0  0  0  0  0  0
  127.0080  -15.4120  164.2440 O   0  0  0  0  0  0  0  0  0  0  0  0
  125.0510  -14.0470  163.9000 C   0  0  0  0  0  0  0  0  0  0  0  0
  124.6220  -13.5740  165.2860 C   0  0  0  0  0  0  0  0  0  0  0  0
  123.5450  -14.4030  165.8270 N   0  0  0  0  0  0  0  0  0  0  0  0
  126.5830  -18.1490  164.1020 C   0  0  0  0  0  0  0  0  0  0  0  0
  132.6890  -15.9120  167.4120 C   0  0  0  0  0  0  0  0  0  0  0  0
  133.9690  -15.2180  166.9540 C   0  0  0  0  0  0  0  0  0  0  0  0
  1  2  1  0
  2  3  1  0
  3  4  1  0
  4  5  1  0
  5  6  1  0
  6  7  2  0
  6  8  1  0
  8  9  1  6
  9 10  1  0
 10 11  2  0
 11 12  1  0
 12 13  2  0
 13 14  1  0
 14 15  1  0
 15 16  2  3
 15 17  1  0
 14 18  2  0
  8 19  1  0
 19 20  1  0
 20 21  2  0
 20 22  2  0
 20 23  1  0
 23 24  2  0
 24 25  1  0
 25 26  2  0
 26 27  1  0
 27 28  1  0
 28 29  1  0
 29 30  2  0
 29 31  1  0
 31 32  1  0
 32 33  1  0
 27 34  2  0
  5 35  1  0
 35 36  1  0
 36  2  1  0
 18 10  1  0
 34 23  1  0
M  END
$$$$
