DMTIJSKMOKMMKZ-IYOYZZHUSA-N_6LXA_m3
     RDKit          3D

 40 43  0  0  0  0  0  0  0  0999 V2000
    6.5880    9.6170   -2.0060 C   0  0  0  0  0  0  0  0  0  0  0  0
    5.3590    9.2920   -2.6560 O   0  0  0  0  0  0  0  0  0  0  0  0
    4.9180    8.0250   -2.4230 C   0  0  0  0  0  0  0  0  0  0  0  0
    5.6220    7.1380   -1.9580 O   0  0  0  0  0  0  0  0  0  0  0  0
    3.4400    7.8860   -2.7060 C   0  0  0  0  0  0  0  0  0  0  0  0
    3.1360    7.6610   -4.1950 C   0  0  0  0  0  0  0  0  0  0  0  0
    4.3230    7.1240   -4.9640 C   0  0  0  0  0  0  0  0  0  0  0  0
    4.5880    5.7490   -4.9900 C   0  0  0  0  0  0  0  0  0  0  0  0
    5.6590    5.2510   -5.7340 C   0  0  0  0  0  0  0  0  0  0  0  0
    6.4830    6.1130   -6.4620 C   0  0  0  0  0  0  0  0  0  0  0  0
    7.4780    5.4870   -7.1570 O   0  0  0  0  0  0  0  0  0  0  0  0
    8.3010    4.5670   -6.4400 C   0  0  0  0  0  0  0  0  0  0  0  0
    9.7640    4.9450   -6.6980 C   0  0  0  0  0  0  0  0  0  0  0  0
   10.0410    5.1680   -8.1210 N   0  0  0  0  0  0  0  0  0  0  0  0
   10.0030    4.0020   -8.9960 C   0  0  0  0  0  0  0  0  0  0  0  0
   11.0360    4.1420  -10.0950 C   0  0  0  0  0  0  0  0  0  0  0  0
   10.7730    5.3930  -10.9590 C   0  0  0  0  0  0  0  0  0  0  0  0
    9.5620    5.1590  -11.8860 C   0  0  0  0  0  0  0  0  0  0  0  0
   12.0310    5.6010  -11.8350 C   0  0  0  0  0  0  0  0  0  0  0  0
   10.4830    6.6020  -10.0610 C   0  0  0  0  0  0  0  0  0  0  0  0
   10.5540    7.9000  -10.6130 C   0  0  0  0  0  0  0  0  0  0  0  0
   10.3080    9.0250   -9.8280 C   0  0  0  0  0  0  0  0  0  0  0  0
   10.4380   10.3830  -10.4200 C   0  0  0  0  0  0  0  0  0  0  0  0
   10.4230   11.4800   -9.7140 N   0  0  0  0  0  0  0  0  0  0  0  0
   10.2740   11.2370   -8.3430 O   0  0  0  0  0  0  0  0  0  0  0  0
   10.5970   10.4920  -11.9100 C   0  0  0  0  0  0  0  0  0  0  0  0
   11.8340   10.2910  -12.5410 C   0  0  0  0  0  0  0  0  0  0  0  0
   11.9440   10.3980  -13.9290 C   0  0  0  0  0  0  0  0  0  0  0  0
   10.8200   10.6990  -14.6980 C   0  0  0  0  0  0  0  0  0  0  0  0
    9.5850   10.8920  -14.0830 C   0  0  0  0  0  0  0  0  0  0  0  0
    9.4720   10.7890  -12.6940 C   0  0  0  0  0  0  0  0  0  0  0  0
    9.9650    8.8820   -8.4910 C   0  0  0  0  0  0  0  0  0  0  0  0
    9.8780    7.6010   -7.9410 C   0  0  0  0  0  0  0  0  0  0  0  0
   10.1250    6.4340   -8.6950 C   0  0  0  0  0  0  0  0  0  0  0  0
    6.2340    7.4840   -6.4300 C   0  0  0  0  0  0  0  0  0  0  0  0
    5.1590    7.9860   -5.6870 C   0  0  0  0  0  0  0  0  0  0  0  0
    2.8830    6.7410   -1.8950 C   0  0  0  0  0  0  0  0  0  0  0  0
    2.6070    5.6380   -2.3500 O   0  0  0  0  0  0  0  0  0  0  0  0
    2.7320    7.1110   -0.5920 O   0  0  0  0  0  0  0  0  0  0  0  0
    2.9900    6.0650    0.3440 C   0  0  0  0  0  0  0  0  0  0  0  0
  1  2  1  0
  2  3  1  0
  3  4  2  0
  3  5  1  0
  5  6  1  0
  6  7  1  0
  7  8  2  0
  8  9  1  0
  9 10  2  0
 10 11  1  0
 11 12  1  0
 12 13  1  0
 13 14  1  0
 14 15  1  0
 15 16  1  0
 16 17  1  0
 17 18  1  0
 17 19  1  0
 17 20  1  0
 20 21  2  0
 21 22  1  0
 22 23  1  0
 23 24  2  0
 24 25  1  0
 23 26  1  0
 26 27  2  0
 27 28  1  0
 28 29  2  0
 29 30  1  0
 30 31  2  0
 22 32  2  0
 32 33  1  0
 33 34  2  0
 10 35  1  0
 35 36  2  0
  5 37  1  0
 37 38  2  0
 37 39  1  0
 39 40  1  0
 36  7  1  0
 34 14  1  0
 34 20  1  0
 31 26  1  0
M  END
$$$$
