DQXVDJJGGAPUCQ-GOOCMWNKSA-N_6N7A_m1
     RDKit          3D

 27 30  0  0  0  0  0  0  0  0999 V2000
   -0.5530  -16.2210   19.2270 C   0  0  0  0  0  0  0  0  0  0  0  0
    0.2950  -17.2700   18.7690 O   0  0  0  0  0  0  0  0  0  0  0  0
    1.6540  -17.0580   19.1520 C   0  0  0  0  0  0  0  0  0  0  0  0
    2.3520  -18.4160   19.2350 C   0  0  1  0  0  0  0  0  0  0  0  0
    3.6730  -18.4630   18.4750 C   0  0  0  0  0  0  0  0  0  0  0  0
    4.6580  -17.8050   19.4310 C   0  0  0  0  0  0  0  0  0  0  0  0
    4.1460  -18.1080   20.7990 N   0  0  0  0  0  0  0  0  0  0  0  0
    5.1940  -18.9430   21.8430 S   0  0  0  0  0  0  0  0  0  0  0  0
    6.4440  -18.2120   21.8750 O   0  0  0  0  0  0  0  0  0  0  0  0
    4.4600  -19.2140   23.0570 O   0  0  0  0  0  0  0  0  0  0  0  0
    5.4710  -20.4700   20.9420 C   0  0  0  0  0  0  0  0  0  0  0  0
    5.1210  -21.6560   21.8250 C   0  0  1  0  0  0  0  0  0  0  0  0
    5.2780  -23.0540   21.1790 C   0  0  0  0  0  0  0  0  0  0  0  0
    5.7860  -23.5700   22.5550 C   0  0  1  0  0  0  0  0  0  0  0  0
    6.9010  -24.4740   22.4840 N   0  0  0  0  0  0  0  0  0  0  0  0
    8.0060  -24.1830   21.5810 C   0  0  0  0  0  0  0  0  0  0  0  0
    7.1150  -25.6250   23.2720 C   0  0  0  0  0  0  0  0  0  0  0  0
    8.1540  -25.6230   24.1610 N   0  0  0  0  0  0  0  0  0  0  0  0
    8.4270  -26.7380   24.8660 C   0  0  0  0  0  0  0  0  0  0  0  0
    7.7850  -27.9140   24.8340 N   0  0  0  0  0  0  0  0  0  0  0  0
    6.7380  -27.8690   23.9990 C   0  0  0  0  0  0  0  0  0  0  0  0
    5.8840  -28.9150   23.7850 N   0  0  0  0  0  0  0  0  0  0  0  0
    4.8890  -28.5330   22.9220 C   0  0  0  0  0  0  0  0  0  0  0  0
    5.1360  -27.2240   22.5640 C   0  0  0  0  0  0  0  0  0  0  0  0
    6.3310  -26.7970   23.2140 C   0  0  0  0  0  0  0  0  0  0  0  0
    6.2110  -22.0970   22.8280 C   0  0  0  0  0  0  0  0  0  0  0  0
    2.7980  -18.7380   20.6580 C   0  0  0  0  0  0  0  0  0  0  0  0
  1  2  1  0
  2  3  1  0
  4  3  1  1
  4  5  1  0
  5  6  1  0
  6  7  1  0
  7  8  1  0
  8  9  2  0
  8 10  2  0
  8 11  1  0
 12 11  1  6
 12 13  1  0
 13 14  1  0
 14 15  1  6
 15 16  1  0
 15 17  1  0
 17 18  2  0
 18 19  1  0
 19 20  2  0
 20 21  1  0
 21 22  1  0
 22 23  1  0
 23 24  2  0
 24 25  1  0
 14 26  1  0
  7 27  1  0
 27  4  1  0
 26 12  1  0
 25 17  1  0
 25 21  2  0
M  END
$$$$
