DULLYLROEIJODI-UHFFFAOYSA-N_4EY7_m6
     RDKit          3D

 41 45  0  0  0  0  0  0  0  0999 V2000
  -16.8940  -40.2520   21.2920 O   0  0  0  0  0  0  0  0  0  0  0  0
  -17.6870  -40.7880   22.0530 C   0  0  0  0  0  0  0  0  0  0  0  0
  -17.3510  -41.7590   22.9700 N   0  0  0  0  0  0  0  0  0  0  0  0
  -15.9950  -42.2290   23.1440 C   0  0  0  0  0  0  0  0  0  0  0  0
  -15.9100  -43.4280   24.0890 C   0  0  0  0  0  0  0  0  0  0  0  0
  -15.9970  -43.0780   25.5810 C   0  0  0  0  0  0  0  0  0  0  0  0
  -14.7820  -42.3800   26.2000 C   0  0  0  0  0  0  0  0  0  0  0  0
  -13.4810  -43.1720   26.0550 C   0  0  0  0  0  0  0  0  0  0  0  0
  -13.2200  -44.0520   27.2800 C   0  0  0  0  0  0  0  0  0  0  0  0
  -13.4120  -45.5330   26.9460 C   0  0  0  0  0  0  0  0  0  0  0  0
  -12.4600  -46.4280   27.7460 C   0  0  0  0  0  0  0  0  0  0  0  0
  -11.3260  -45.6040   28.3710 C   0  0  0  0  0  0  0  0  0  0  0  0
  -10.3770  -46.4310   29.2430 C   0  0  0  0  0  0  0  0  0  0  0  0
  -10.8810  -46.5040   30.6130 N   0  0  0  0  0  0  0  0  0  0  0  0
  -10.8160  -45.3220   31.3740 C   0  0  0  0  0  0  0  0  0  0  0  0
  -12.0030  -44.6380   31.7090 C   0  0  0  0  0  0  0  0  0  0  0  0
  -11.8910  -43.4740   32.4700 C   0  0  0  0  0  0  0  0  0  0  0  0
  -10.7040  -42.9780   32.8900 N   0  0  0  0  0  0  0  0  0  0  0  0
   -9.5760  -43.6310   32.5830 C   0  0  0  0  0  0  0  0  0  0  0  0
   -8.3770  -43.1040   33.0390 C   0  0  0  0  0  0  0  0  0  0  0  0
   -7.1620  -43.7270   32.7700 C   0  0  0  0  0  0  0  0  0  0  0  0
   -5.6950  -43.0460   33.3580 Cl  0  0  0  0  0  0  0  0  0  0  0  0
   -7.1270  -44.9020   32.0330 C   0  0  0  0  0  0  0  0  0  0  0  0
   -8.3220  -45.4460   31.5630 C   0  0  0  0  0  0  0  0  0  0  0  0
   -9.5660  -44.8200   31.8250 C   0  0  0  0  0  0  0  0  0  0  0  0
  -13.0890  -42.6210   32.8060 C   0  0  0  0  0  0  0  0  0  0  0  0
  -14.4240  -43.3380   32.6360 C   0  0  0  0  0  0  0  0  0  0  0  0
  -14.4520  -44.0860   31.3130 C   0  0  0  0  0  0  0  0  0  0  0  0
  -13.3600  -45.1540   31.2920 C   0  0  0  0  0  0  0  0  0  0  0  0
  -19.1390  -40.4160   22.1050 C   0  0  0  0  0  0  0  0  0  0  0  0
  -19.6490  -39.7400   21.0660 C   0  0  0  0  0  0  0  0  0  0  0  0
  -21.0480  -39.2930   21.1230 C   0  0  0  0  0  0  0  0  0  0  0  0
  -21.5560  -38.6870   20.1900 O   0  0  0  0  0  0  0  0  0  0  0  0
  -21.7830  -39.5930   22.3610 C   0  0  0  0  0  0  0  0  0  0  0  0
  -23.0890  -39.1350   22.5480 C   0  0  0  0  0  0  0  0  0  0  0  0
  -23.7390  -39.4220   23.7440 C   0  0  0  0  0  0  0  0  0  0  0  0
  -24.9950  -38.9270   23.9220 O   0  0  0  0  0  0  0  0  0  0  0  0
  -23.1160  -40.1780   24.7360 C   0  0  0  0  0  0  0  0  0  0  0  0
  -21.8130  -40.6340   24.5410 C   0  0  0  0  0  0  0  0  0  0  0  0
  -21.1410  -40.3260   23.3580 C   0  0  0  0  0  0  0  0  0  0  0  0
  -19.8490  -40.7670   23.2430 O   0  0  0  0  0  0  0  0  0  0  0  0
  1  2  2  0
  2  3  1  0
  3  4  1  0
  4  5  1  0
  5  6  1  0
  6  7  1  0
  7  8  1  0
  8  9  1  0
  9 10  1  0
 10 11  1  0
 11 12  1  0
 12 13  1  0
 13 14  1  0
 14 15  1  0
 15 16  2  0
 16 17  1  0
 17 18  2  0
 18 19  1  0
 19 20  2  0
 20 21  1  0
 21 22  1  0
 21 23  2  0
 23 24  1  0
 24 25  2  0
 17 26  1  0
 26 27  1  0
 27 28  1  0
 28 29  1  0
  2 30  1  0
 30 31  2  0
 31 32  1  0
 32 33  2  0
 32 34  1  0
 34 35  2  0
 35 36  1  0
 36 37  1  0
 36 38  2  0
 38 39  1  0
 39 40  2  0
 40 41  1  0
 25 15  1  0
 41 30  1  0
 29 16  1  0
 40 34  1  0
 25 19  1  0
M  END
$$$$
