DVLMIYJJISHOPY-UHFFFAOYSA-N_4EY7_m8
     RDKit          3D

 28 31  0  0  0  0  0  0  0  0999 V2000
  -21.8300  -38.3760   20.2310 C   0  0  0  0  0  0  0  0  0  0  0  0
  -21.9210  -38.6990   21.5810 C   0  0  0  0  0  0  0  0  0  0  0  0
  -20.9200  -39.4620   22.1910 C   0  0  0  0  0  0  0  0  0  0  0  0
  -19.8050  -39.9240   21.4660 C   0  0  0  0  0  0  0  0  0  0  0  0
  -18.7410  -40.7340   22.0900 C   0  0  0  0  0  0  0  0  0  0  0  0
  -18.9660  -41.6900   23.0690 C   0  0  0  0  0  0  0  0  0  0  0  0
  -17.8870  -42.4080   23.5940 C   0  0  0  0  0  0  0  0  0  0  0  0
  -16.6040  -42.1650   23.1380 C   0  0  0  0  0  0  0  0  0  0  0  0
  -15.4890  -42.8170   23.5880 N   0  0  0  0  0  0  0  0  0  0  0  0
  -14.4770  -42.3040   24.4820 C   0  0  0  0  0  0  0  0  0  0  0  0
  -14.9050  -42.4760   25.9400 C   0  0  0  0  0  0  0  0  0  0  0  0
  -14.9840  -43.9550   26.3220 C   0  0  0  0  0  0  0  0  0  0  0  0
  -14.0850  -44.2680   27.5220 C   0  0  0  0  0  0  0  0  0  0  0  0
  -12.7510  -43.5080   27.4880 C   0  0  0  0  0  0  0  0  0  0  0  0
  -11.6100  -44.2590   28.0350 N   0  0  0  0  0  0  0  0  0  0  0  0
  -11.9370  -45.6920   28.1300 C   0  0  0  0  0  0  0  0  0  0  0  0
  -10.6920  -46.5110   28.4930 C   0  0  0  0  0  0  0  0  0  0  0  0
   -9.9580  -45.9460   29.6800 C   0  0  0  0  0  0  0  0  0  0  0  0
   -9.0120  -46.7240   30.3610 C   0  0  0  0  0  0  0  0  0  0  0  0
   -8.3080  -46.1910   31.4400 C   0  0  0  0  0  0  0  0  0  0  0  0
   -8.5370  -44.8780   31.8410 C   0  0  0  0  0  0  0  0  0  0  0  0
   -9.4690  -44.0930   31.1610 C   0  0  0  0  0  0  0  0  0  0  0  0
  -10.1780  -44.6140   30.0680 C   0  0  0  0  0  0  0  0  0  0  0  0
  -11.2130  -43.7560   29.3670 C   0  0  0  0  0  0  0  0  0  0  0  0
  -16.4190  -41.2370   22.1810 N   0  0  0  0  0  0  0  0  0  0  0  0
  -17.4820  -40.5200   21.6540 N   0  0  0  0  0  0  0  0  0  0  0  0
  -19.7350  -39.5750   20.1030 C   0  0  0  0  0  0  0  0  0  0  0  0
  -20.7350  -38.8130   19.4900 C   0  0  0  0  0  0  0  0  0  0  0  0
  1  2  2  0
  2  3  1  0
  3  4  2  0
  4  5  1  0
  5  6  2  0
  6  7  1  0
  7  8  2  0
  8  9  1  0
  9 10  1  0
 10 11  1  0
 11 12  1  0
 12 13  1  0
 13 14  1  0
 14 15  1  0
 15 16  1  0
 16 17  1  0
 17 18  1  0
 18 19  2  0
 19 20  1  0
 20 21  2  0
 21 22  1  0
 22 23  2  0
 23 24  1  0
  8 25  1  0
 25 26  2  0
  4 27  1  0
 27 28  2  0
 28  1  1  0
 26  5  1  0
 24 15  1  0
 23 18  1  0
M  END
$$$$
