DXAPSOAHVMXRKS-UHFFFAOYSA-N_2JKH_m8
     RDKit          3D

 30 33  0  0  0  0  0  0  0  0999 V2000
   -5.9280    9.0170   21.1640 O   0  0  0  0  0  0  0  0  0  0  0  0
   -5.2730    8.6950   20.1800 C   0  0  0  0  0  0  0  0  0  0  0  0
   -4.0990    9.2940   19.7480 N   0  0  0  0  0  0  0  0  0  0  0  0
   -3.3920   10.3490   20.3670 C   0  0  0  0  0  0  0  0  0  0  0  0
   -3.7650   11.6910   20.2780 C   0  0  0  0  0  0  0  0  0  0  0  0
   -3.0120   12.6760   20.9200 C   0  0  0  0  0  0  0  0  0  0  0  0
   -1.8810   12.3250   21.6540 C   0  0  0  0  0  0  0  0  0  0  0  0
   -1.4930   10.9890   21.7550 C   0  0  0  0  0  0  0  0  0  0  0  0
   -0.3650   10.7810   22.4990 O   0  0  0  0  0  0  0  0  0  0  0  0
   -0.2590   11.4800   23.7420 C   0  0  0  0  0  0  0  0  0  0  0  0
   -0.8070   10.6530   24.8800 C   0  0  0  0  0  0  0  0  0  0  0  0
   -0.1310    9.5490   25.4180 C   0  0  0  0  0  0  0  0  0  0  0  0
   -0.6790    8.8330   26.4870 C   0  0  0  0  0  0  0  0  0  0  0  0
   -1.9030    9.2150   27.0350 C   0  0  0  0  0  0  0  0  0  0  0  0
   -2.5780   10.3190   26.5190 C   0  0  0  0  0  0  0  0  0  0  0  0
   -2.0260   11.0270   25.4550 C   0  0  0  0  0  0  0  0  0  0  0  0
   -2.6840   12.0940   24.9780 F   0  0  0  0  0  0  0  0  0  0  0  0
   -2.2520   10.0050   21.1130 C   0  0  0  0  0  0  0  0  0  0  0  0
   -5.7010    7.5420   19.2660 C   0  0  0  0  0  0  0  0  0  0  0  0
   -4.8960    7.5030   17.9620 C   0  0  0  0  0  0  0  0  0  0  0  0
   -5.3060    8.5840   16.9630 C   0  0  0  0  0  0  0  0  0  0  0  0
   -6.7600    8.5750   16.7770 N   0  0  0  0  0  0  0  0  0  0  0  0
   -7.3060    9.0810   15.5970 C   0  0  0  0  0  0  0  0  0  0  0  0
   -8.6910    9.0940   15.4030 C   0  0  0  0  0  0  0  0  0  0  0  0
   -9.2170    9.5900   14.2180 C   0  0  0  0  0  0  0  0  0  0  0  0
   -8.4690   10.0780   13.2090 N   0  0  0  0  0  0  0  0  0  0  0  0
   -7.1350   10.0570   13.4000 C   0  0  0  0  0  0  0  0  0  0  0  0
   -6.5210    9.5750   14.5490 C   0  0  0  0  0  0  0  0  0  0  0  0
   -7.5590    8.7190   17.9980 C   0  0  0  0  0  0  0  0  0  0  0  0
   -7.2060    7.5990   18.9750 C   0  0  0  0  0  0  0  0  0  0  0  0
  1  2  2  0
  2  3  1  0
  3  4  1  0
  4  5  2  0
  5  6  1  0
  6  7  2  0
  7  8  1  0
  8  9  1  0
  9 10  1  0
 10 11  1  0
 11 12  2  0
 12 13  1  0
 13 14  2  0
 14 15  1  0
 15 16  2  0
 16 17  1  0
  8 18  2  0
  2 19  1  0
 19 20  1  0
 20 21  1  0
 21 22  1  0
 22 23  1  0
 23 24  2  0
 24 25  1  0
 25 26  2  0
 26 27  1  0
 27 28  2  0
 22 29  1  0
 29 30  1  0
 18  4  1  0
 30 19  1  0
 16 11  1  0
 28 23  1  0
M  END
$$$$
