DZAUZMTZRSMYAI-SKCDSABHSA-N_9V8H_m7
     RDKit          3D

 34 36  0  0  0  0  0  0  0  0999 V2000
   -4.3890   -4.5950  -20.3670 C   0  0  0  0  0  0  0  0  0  0  0  0
   -4.4580   -6.0500  -20.7930 C   0  0  0  0  0  0  0  0  0  0  0  0
   -5.5700   -6.7020  -20.1880 O   0  0  0  0  0  0  0  0  0  0  0  0
   -6.7700   -6.6580  -20.9720 C   0  0  1  0  0  0  0  0  0  0  0  0
   -7.2500   -8.1010  -21.1800 C   0  0  0  0  0  0  0  0  0  0  0  0
   -8.3740   -8.1900  -22.1900 C   0  0  0  0  0  0  0  0  0  0  0  0
   -8.2720   -7.5410  -23.4250 C   0  0  0  0  0  0  0  0  0  0  0  0
   -9.3050   -7.6400  -24.3590 C   0  0  0  0  0  0  0  0  0  0  0  0
  -10.4590   -8.3730  -24.0700 C   0  0  0  0  0  0  0  0  0  0  0  0
  -11.3960   -8.3880  -25.0640 O   0  0  0  0  0  0  0  0  0  0  0  0
  -11.2240   -7.4360  -26.1200 C   0  0  0  0  0  0  0  0  0  0  0  0
  -11.5020   -8.1210  -27.4700 C   0  0  1  0  0  0  0  0  0  0  0  0
  -12.3120   -7.2540  -28.3110 O   0  0  0  0  0  0  0  0  0  0  0  0
  -13.0460   -6.2120  -27.8590 C   0  0  0  0  0  0  0  0  0  0  0  0
  -14.3490   -6.3280  -26.8400 S   0  0  0  0  0  0  0  0  0  0  0  0
  -12.6080   -5.0050  -28.3120 N   0  0  0  0  0  0  0  0  0  0  0  0
  -11.4840   -4.8220  -29.2010 C   0  0  0  0  0  0  0  0  0  0  0  0
  -11.5610   -3.4910  -29.8990 C   0  0  0  0  0  0  0  0  0  0  0  0
  -12.7790   -2.8070  -30.0130 C   0  0  0  0  0  0  0  0  0  0  0  0
  -12.8420   -1.5820  -30.6800 C   0  0  0  0  0  0  0  0  0  0  0  0
  -11.6920   -1.0340  -31.2450 C   0  0  0  0  0  0  0  0  0  0  0  0
  -10.4780   -1.7120  -31.1480 C   0  0  0  0  0  0  0  0  0  0  0  0
  -10.4120   -2.9350  -30.4810 C   0  0  0  0  0  0  0  0  0  0  0  0
  -10.2030   -8.3980  -28.2170 C   0  0  0  0  0  0  0  0  0  0  0  0
  -10.1350   -8.1770  -29.6030 C   0  0  0  0  0  0  0  0  0  0  0  0
   -8.9640   -8.4520  -30.3120 C   0  0  0  0  0  0  0  0  0  0  0  0
   -7.8460   -8.9530  -29.6470 C   0  0  0  0  0  0  0  0  0  0  0  0
   -7.8980   -9.1800  -28.2730 C   0  0  0  0  0  0  0  0  0  0  0  0
   -9.0700   -8.9110  -27.5630 C   0  0  0  0  0  0  0  0  0  0  0  0
  -10.5600   -9.0350  -22.8470 C   0  0  0  0  0  0  0  0  0  0  0  0
   -9.5210   -8.9460  -21.9130 C   0  0  0  0  0  0  0  0  0  0  0  0
   -7.8840   -5.8650  -20.2780 C   0  0  0  0  0  0  0  0  0  0  0  0
   -8.5850   -6.2270  -19.3470 O   0  0  0  0  0  0  0  0  0  0  0  0
   -8.0220   -4.6130  -20.7700 O   0  0  0  0  0  0  0  0  0  0  0  0
  1  2  1  0
  2  3  1  0
  3  4  1  0
  4  5  1  1
  5  6  1  0
  6  7  2  0
  7  8  1  0
  8  9  2  0
  9 10  1  0
 10 11  1  0
 12 11  1  1
 12 13  1  0
 13 14  1  0
 14 15  2  0
 14 16  1  0
 16 17  1  0
 17 18  1  0
 18 19  2  0
 19 20  1  0
 20 21  2  0
 21 22  1  0
 22 23  2  0
 12 24  1  0
 24 25  2  0
 25 26  1  0
 26 27  2  0
 27 28  1  0
 28 29  2  0
  9 30  1  0
 30 31  2  0
  4 32  1  0
 32 33  2  0
 32 34  1  0
 31  6  1  0
 23 18  1  0
 29 24  1  0
M  END
$$$$
