FAQHMFAPRWBDDB-UHFFFAOYSA-N_6LXA_m1
     RDKit          3D

 32 34  0  0  0  0  0  0  0  0999 V2000
    6.5610   10.1730   -3.0280 C   0  0  0  0  0  0  0  0  0  0  0  0
    6.1670   10.0150   -4.4890 C   0  0  0  0  0  0  0  0  0  0  0  0
    4.7340    9.5090   -4.6850 C   0  0  0  0  0  0  0  0  0  0  0  0
    4.5100    8.1150   -4.1560 C   0  0  0  0  0  0  0  0  0  0  0  0
    4.8450    6.9550   -4.8900 C   0  0  0  0  0  0  0  0  0  0  0  0
    5.3980    7.1860   -6.1280 O   0  0  0  0  0  0  0  0  0  0  0  0
    6.7650    6.8070   -6.3090 C   0  0  0  0  0  0  0  0  0  0  0  0
    6.8060    5.4140   -6.9280 C   0  0  0  0  0  0  0  0  0  0  0  0
    7.6170    4.4100   -6.1080 C   0  0  0  0  0  0  0  0  0  0  0  0
    9.0600    4.4940   -6.3760 N   0  0  0  0  0  0  0  0  0  0  0  0
    9.9500    3.9190   -5.3720 C   0  0  0  0  0  0  0  0  0  0  0  0
    9.5350    4.7670   -7.6550 C   0  0  0  0  0  0  0  0  0  0  0  0
   10.1440    5.9920   -7.9780 C   0  0  0  0  0  0  0  0  0  0  0  0
   10.6990    6.2370   -9.2410 C   0  0  0  0  0  0  0  0  0  0  0  0
   10.6420    5.2660  -10.2420 C   0  0  0  0  0  0  0  0  0  0  0  0
   11.2760    5.5070  -11.5890 C   0  0  0  0  0  0  0  0  0  0  0  0
   10.9710    6.8680  -12.1700 C   0  0  0  0  0  0  0  0  0  0  0  0
   11.6480    7.8820  -12.1270 O   0  0  0  0  0  0  0  0  0  0  0  0
    9.7810    6.8790  -12.8110 O   0  0  0  0  0  0  0  0  0  0  0  0
   10.0080    4.0570   -9.9570 C   0  0  0  0  0  0  0  0  0  0  0  0
    9.4590    3.8210   -8.6890 C   0  0  0  0  0  0  0  0  0  0  0  0
    4.6170    5.6740   -4.3600 C   0  0  0  0  0  0  0  0  0  0  0  0
    4.0440    5.4950   -3.0920 C   0  0  0  0  0  0  0  0  0  0  0  0
    3.6980    6.6320   -2.3510 C   0  0  0  0  0  0  0  0  0  0  0  0
    3.1170    6.9100   -1.0840 C   0  0  0  0  0  0  0  0  0  0  0  0
    2.6750    5.9180   -0.0690 C   0  0  0  0  0  0  0  0  0  0  0  0
    1.8730    4.9580   -0.6120 F   0  0  0  0  0  0  0  0  0  0  0  0
    3.7280    5.2580    0.4870 F   0  0  0  0  0  0  0  0  0  0  0  0
    1.9730    6.4630    0.9590 F   0  0  0  0  0  0  0  0  0  0  0  0
    3.0160    8.2350   -0.8800 N   0  0  0  0  0  0  0  0  0  0  0  0
    3.5290    8.8330   -2.0170 O   0  0  0  0  0  0  0  0  0  0  0  0
    3.9380    7.8790   -2.8980 C   0  0  0  0  0  0  0  0  0  0  0  0
  1  2  1  0
  2  3  1  0
  3  4  1  0
  4  5  2  0
  5  6  1  0
  6  7  1  0
  7  8  1  0
  8  9  1  0
  9 10  1  0
 10 11  1  0
 10 12  1  0
 12 13  2  0
 13 14  1  0
 14 15  2  0
 15 16  1  0
 16 17  1  0
 17 18  2  0
 17 19  1  0
 15 20  1  0
 20 21  2  0
  5 22  1  0
 22 23  2  0
 23 24  1  0
 24 25  1  0
 25 26  1  0
 26 27  1  0
 26 28  1  0
 26 29  1  0
 25 30  2  0
 30 31  1  0
 31 32  1  0
 32  4  1  0
 21 12  1  0
 32 24  2  0
M  END
$$$$
