FCCJGNOUIYGKAC-UHFFFAOYSA-N_2JKH_m1
     RDKit          3D

 30 33  0  0  0  0  0  0  0  0999 V2000
   -6.6910    5.1970   18.4560 C   0  0  0  0  0  0  0  0  0  0  0  0
   -5.4290    5.9490   18.0760 C   0  0  0  0  0  0  0  0  0  0  0  0
   -5.2660    7.0330   18.9970 O   0  0  0  0  0  0  0  0  0  0  0  0
   -6.0370    8.1190   18.7240 C   0  0  0  0  0  0  0  0  0  0  0  0
   -6.5270    8.4060   17.6400 O   0  0  0  0  0  0  0  0  0  0  0  0
   -6.2280    8.9840   19.9380 C   0  0  0  0  0  0  0  0  0  0  0  0
   -4.9760    9.7090   20.4260 C   0  0  0  0  0  0  0  0  0  0  0  0
   -4.0070   10.1840   19.5310 C   0  0  0  0  0  0  0  0  0  0  0  0
   -2.8530   10.8380   19.9800 C   0  0  0  0  0  0  0  0  0  0  0  0
   -2.6300   11.0270   21.3480 C   0  0  0  0  0  0  0  0  0  0  0  0
   -3.5790   10.5460   22.2640 C   0  0  0  0  0  0  0  0  0  0  0  0
   -4.7300    9.8990   21.7950 C   0  0  0  0  0  0  0  0  0  0  0  0
   -3.4300   10.6610   23.6540 N   0  0  0  0  0  0  0  0  0  0  0  0
   -2.3710   11.2640   24.1090 C   0  0  0  0  0  0  0  0  0  0  0  0
   -2.1500   11.3630   25.5990 C   0  0  0  0  0  0  0  0  0  0  0  0
   -1.7780   10.0330   26.2120 C   0  0  0  0  0  0  0  0  0  0  0  0
   -0.6730    9.3170   25.7320 C   0  0  0  0  0  0  0  0  0  0  0  0
   -0.3220    8.0910   26.3010 C   0  0  0  0  0  0  0  0  0  0  0  0
   -1.0760    7.5700   27.3560 C   0  0  0  0  0  0  0  0  0  0  0  0
   -0.7090    6.2630   27.9630 C   0  0  0  0  0  0  0  0  0  0  0  0
   -0.3320    5.2500   27.2480 N   0  0  0  0  0  0  0  0  0  0  0  0
   -0.7600    6.0930   29.3070 N   0  0  0  0  0  0  0  0  0  0  0  0
   -2.1740    8.2820   27.8480 C   0  0  0  0  0  0  0  0  0  0  0  0
   -2.5220    9.5090   27.2790 C   0  0  0  0  0  0  0  0  0  0  0  0
   -1.3010   11.8710   23.2130 C   0  0  0  0  0  0  0  0  0  0  0  0
   -0.3770   12.4850   23.7340 O   0  0  0  0  0  0  0  0  0  0  0  0
   -1.4740   11.6930   21.8440 N   0  0  0  0  0  0  0  0  0  0  0  0
   -0.4770   12.2250   20.9340 C   0  0  0  0  0  0  0  0  0  0  0  0
   -7.2590    8.5530   20.9810 C   0  0  0  0  0  0  0  0  0  0  0  0
   -7.5700    9.7040   20.0790 C   0  0  0  0  0  0  0  0  0  0  0  0
  1  2  1  0
  2  3  1  0
  3  4  1  0
  4  5  2  0
  4  6  1  0
  6  7  1  0
  7  8  2  0
  8  9  1  0
  9 10  2  0
 10 11  1  0
 11 12  2  0
 11 13  1  0
 13 14  2  0
 14 15  1  0
 15 16  1  0
 16 17  2  0
 17 18  1  0
 18 19  2  0
 19 20  1  0
 20 21  2  3
 20 22  1  0
 19 23  1  0
 23 24  2  0
 14 25  1  0
 25 26  2  0
 25 27  1  0
 27 28  1  0
  6 29  1  0
 29 30  1  0
 30  6  1  0
 12  7  1  0
 24 16  1  0
 27 10  1  0
M  END
$$$$
