FEKRWNWZMOSVBX-UHFFFAOYSA-N_4UDW_m1
     RDKit          3D

 26 29  0  0  0  0  0  0  0  0999 V2000
  135.9470  -18.5420  170.1990 N   0  0  0  0  0  0  0  0  0  0  0  0
  135.9600  -18.9560  168.9710 C   0  0  0  0  0  0  0  0  0  0  0  0
  137.0750  -19.5830  168.5190 N   0  0  0  0  0  0  0  0  0  0  0  0
  134.7440  -18.7430  168.1090 C   0  0  0  0  0  0  0  0  0  0  0  0
  134.7350  -17.5680  167.3250 C   0  0  0  0  0  0  0  0  0  0  0  0
  133.6390  -17.2710  166.4920 C   0  0  0  0  0  0  0  0  0  0  0  0
  133.3260  -16.2030  165.6060 C   0  0  0  0  0  0  0  0  0  0  0  0
  132.0810  -16.4390  165.0410 C   0  0  0  0  0  0  0  0  0  0  0  0
  131.2790  -15.6690  164.0680 C   0  0  0  0  0  0  0  0  0  0  0  0
  131.9000  -15.1650  162.9140 C   0  0  0  0  0  0  0  0  0  0  0  0
  131.1860  -14.4330  161.9640 C   0  0  0  0  0  0  0  0  0  0  0  0
  129.8280  -14.1850  162.1510 C   0  0  0  0  0  0  0  0  0  0  0  0
  129.1620  -14.6650  163.2880 C   0  0  0  0  0  0  0  0  0  0  0  0
  127.7310  -14.3760  163.4470 C   0  0  0  0  0  0  0  0  0  0  0  0
  126.7690  -15.3680  163.2070 C   0  0  0  0  0  0  0  0  0  0  0  0
  125.4100  -15.0980  163.3780 C   0  0  0  0  0  0  0  0  0  0  0  0
  124.9970  -13.8310  163.7900 C   0  0  0  0  0  0  0  0  0  0  0  0
  125.9420  -12.8340  164.0290 C   0  0  0  0  0  0  0  0  0  0  0  0
  127.3010  -13.1040  163.8580 C   0  0  0  0  0  0  0  0  0  0  0  0
  129.8990  -15.4080  164.2390 C   0  0  0  0  0  0  0  0  0  0  0  0
  129.2660  -15.9010  165.3640 O   0  0  0  0  0  0  0  0  0  0  0  0
  131.6510  -17.6340  165.5800 N   0  0  0  0  0  0  0  0  0  0  0  0
  132.5700  -18.1540  166.4570 C   0  0  0  0  0  0  0  0  0  0  0  0
  132.5400  -19.3290  167.2130 C   0  0  0  0  0  0  0  0  0  0  0  0
  133.6440  -19.6130  168.0400 C   0  0  0  0  0  0  0  0  0  0  0  0
  133.5310  -21.1030  168.9210 Cl  0  0  0  0  0  0  0  0  0  0  0  0
  1  2  2  3
  2  3  1  0
  2  4  1  0
  4  5  2  0
  5  6  1  0
  6  7  1  0
  7  8  2  0
  8  9  1  0
  9 10  2  0
 10 11  1  0
 11 12  2  0
 12 13  1  0
 13 14  1  0
 14 15  2  0
 15 16  1  0
 16 17  2  0
 17 18  1  0
 18 19  2  0
 13 20  2  0
 20 21  1  0
  8 22  1  0
 22 23  1  0
 23 24  1  0
 24 25  2  0
 25 26  1  0
 25  4  1  0
 23  6  2  0
 20  9  1  0
 19 14  1  0
M  END
$$$$
