FEKRWNWZMOSVBX-UHFFFAOYSA-N_2JKH_m2
     RDKit          3D

 26 29  0  0  0  0  0  0  0  0999 V2000
   -5.9540   17.7620   25.3360 N   0  0  0  0  0  0  0  0  0  0  0  0
   -6.4940   16.5840   25.3040 C   0  0  0  0  0  0  0  0  0  0  0  0
   -7.6580   16.3960   25.9730 N   0  0  0  0  0  0  0  0  0  0  0  0
   -5.8220   15.4880   24.5200 C   0  0  0  0  0  0  0  0  0  0  0  0
   -6.3290   15.2510   23.2230 C   0  0  0  0  0  0  0  0  0  0  0  0
   -5.7780   14.2400   22.4120 C   0  0  0  0  0  0  0  0  0  0  0  0
   -6.0510   13.7590   21.1020 C   0  0  0  0  0  0  0  0  0  0  0  0
   -5.1740   12.7230   20.8120 C   0  0  0  0  0  0  0  0  0  0  0  0
   -5.0130   11.8760   19.6130 C   0  0  0  0  0  0  0  0  0  0  0  0
   -4.4470   12.4290   18.4530 C   0  0  0  0  0  0  0  0  0  0  0  0
   -4.2720   11.6690   17.2960 C   0  0  0  0  0  0  0  0  0  0  0  0
   -4.6640   10.3330   17.2720 C   0  0  0  0  0  0  0  0  0  0  0  0
   -5.2360    9.7340   18.4040 C   0  0  0  0  0  0  0  0  0  0  0  0
   -5.6400    8.3240   18.3320 C   0  0  0  0  0  0  0  0  0  0  0  0
   -6.9520    7.9720   17.9830 C   0  0  0  0  0  0  0  0  0  0  0  0
   -7.3300    6.6310   17.8940 C   0  0  0  0  0  0  0  0  0  0  0  0
   -6.3990    5.6260   18.1550 C   0  0  0  0  0  0  0  0  0  0  0  0
   -5.0920    5.9610   18.5060 C   0  0  0  0  0  0  0  0  0  0  0  0
   -4.7150    7.3020   18.5940 C   0  0  0  0  0  0  0  0  0  0  0  0
   -5.4030   10.5160   19.5700 C   0  0  0  0  0  0  0  0  0  0  0  0
   -5.9560    9.9500   20.7030 O   0  0  0  0  0  0  0  0  0  0  0  0
   -4.3840   12.5840   21.9340 N   0  0  0  0  0  0  0  0  0  0  0  0
   -4.7270   13.4840   22.9110 C   0  0  0  0  0  0  0  0  0  0  0  0
   -4.1930   13.6890   24.1870 C   0  0  0  0  0  0  0  0  0  0  0  0
   -4.7550   14.7030   24.9850 C   0  0  0  0  0  0  0  0  0  0  0  0
   -4.0130   14.9020   26.5410 Cl  0  0  0  0  0  0  0  0  0  0  0  0
  1  2  2  3
  2  3  1  0
  2  4  1  0
  4  5  2  0
  5  6  1  0
  6  7  1  0
  7  8  2  0
  8  9  1  0
  9 10  2  0
 10 11  1  0
 11 12  2  0
 12 13  1  0
 13 14  1  0
 14 15  2  0
 15 16  1  0
 16 17  2  0
 17 18  1  0
 18 19  2  0
 13 20  2  0
 20 21  1  0
  8 22  1  0
 22 23  1  0
 23 24  1  0
 24 25  2  0
 25 26  1  0
 25  4  1  0
 23  6  2  0
 20  9  1  0
 19 14  1  0
M  END
$$$$
