FIEMEGHBBJADPG-LBPRGKRZSA-N_8BXH_m3
     RDKit          3D

 28 31  0  0  0  0  0  0  0  0999 V2000
  -16.0780   15.2320   17.5960 C   0  0  0  0  0  0  0  0  0  0  0  0
  -15.7930   15.0600   19.0940 C   0  0  0  0  0  0  0  0  0  0  0  0
  -15.7000   13.5630   19.4120 C   0  0  0  0  0  0  0  0  0  0  0  0
  -14.5050   15.8280   19.5180 C   0  0  2  0  0  0  0  0  0  0  0  0
  -14.0130   15.4600   20.9250 C   0  0  0  0  0  0  0  0  0  0  0  0
  -14.6400   17.2980   19.3800 N   0  0  0  0  0  0  0  0  0  0  0  0
  -15.9030   17.8820   19.6440 C   0  0  0  0  0  0  0  0  0  0  0  0
  -16.1760   19.2090   19.5620 C   0  0  0  0  0  0  0  0  0  0  0  0
  -17.4740   19.7960   19.8380 C   0  0  0  0  0  0  0  0  0  0  0  0
  -18.6900   19.1000   20.0640 C   0  0  0  0  0  0  0  0  0  0  0  0
  -19.6530   20.0660   20.2900 C   0  0  0  0  0  0  0  0  0  0  0  0
  -21.1220   19.9470   20.5840 C   0  0  0  0  0  0  0  0  0  0  0  0
  -21.4740   18.6220   21.2630 C   0  0  0  0  0  0  0  0  0  0  0  0
  -22.9660   18.5680   21.5930 C   0  0  0  0  0  0  0  0  0  0  0  0
  -23.7600   19.3940   20.7390 O   0  0  0  0  0  0  0  0  0  0  0  0
  -23.2960   19.3970   19.3940 C   0  0  0  0  0  0  0  0  0  0  0  0
  -21.9590   20.1250   19.3070 C   0  0  0  0  0  0  0  0  0  0  0  0
  -18.9890   21.2600   20.1730 N   0  0  0  0  0  0  0  0  0  0  0  0
  -19.5420   22.5900   20.2960 C   0  0  0  0  0  0  0  0  0  0  0  0
  -17.6760   21.1220   19.9150 N   0  0  0  0  0  0  0  0  0  0  0  0
  -15.0360   19.9550   19.1710 C   0  0  0  0  0  0  0  0  0  0  0  0
  -14.9950   21.3020   19.0020 N   0  0  0  0  0  0  0  0  0  0  0  0
  -13.7730   21.7410   18.6280 N   0  0  0  0  0  0  0  0  0  0  0  0
  -13.0360   20.6270   18.5610 C   0  0  0  0  0  0  0  0  0  0  0  0
  -11.7460   20.6200   18.2200 N   0  0  0  0  0  0  0  0  0  0  0  0
  -13.7800   19.4820   18.8930 C   0  0  0  0  0  0  0  0  0  0  0  0
  -13.5080   18.0690   18.9860 C   0  0  0  0  0  0  0  0  0  0  0  0
  -12.3990   17.6020   18.7410 O   0  0  0  0  0  0  0  0  0  0  0  0
  1  2  1  0
  2  3  1  0
  2  4  1  0
  4  5  1  1
  4  6  1  0
  6  7  1  0
  7  8  2  0
  8  9  1  0
  9 10  1  0
 10 11  2  0
 11 12  1  0
 12 13  1  0
 13 14  1  0
 14 15  1  0
 15 16  1  0
 16 17  1  0
 11 18  1  0
 18 19  1  0
 18 20  1  0
  8 21  1  0
 21 22  1  0
 22 23  1  0
 23 24  2  0
 24 25  1  0
 24 26  1  0
 26 27  1  0
 27 28  2  0
 27  6  1  0
 20  9  2  0
 26 21  2  0
 17 12  1  0
M  END
$$$$
