FKTIPOLHKSMAHY-UHFFFAOYSA-N_4UDW_m2
     RDKit          3D

 29 30  0  0  0  0  0  0  0  0999 V2000
  128.2730  -15.1080  157.3610 C   0  0  0  0  0  0  0  0  0  0  0  0
  128.0480  -15.4870  158.7190 O   0  0  0  0  0  0  0  0  0  0  0  0
  127.7820  -14.4390  159.5470 C   0  0  0  0  0  0  0  0  0  0  0  0
  127.3630  -13.3450  159.1900 O   0  0  0  0  0  0  0  0  0  0  0  0
  128.1300  -14.7830  160.9750 C   0  0  0  0  0  0  0  0  0  0  0  0
  126.8950  -15.1370  161.8200 C   0  0  1  0  0  0  0  0  0  0  0  0
  127.0600  -16.4810  162.5670 C   0  0  0  0  0  0  0  0  0  0  0  0
  128.1400  -17.4260  162.0230 C   0  0  0  0  0  0  0  0  0  0  0  0
  129.2770  -17.6980  163.0160 C   0  0  0  0  0  0  0  0  0  0  0  0
  129.4470  -16.5810  164.0520 C   0  0  0  0  0  0  0  0  0  0  0  0
  130.8790  -16.3340  164.4560 C   0  0  0  0  0  0  0  0  0  0  0  0
  131.8670  -16.1130  163.4890 C   0  0  0  0  0  0  0  0  0  0  0  0
  133.1950  -15.8940  163.8670 C   0  0  0  0  0  0  0  0  0  0  0  0
  133.5740  -15.8900  165.2160 C   0  0  0  0  0  0  0  0  0  0  0  0
  134.9140  -15.6340  165.5490 N   0  0  0  0  0  0  0  0  0  0  0  0
  135.8120  -16.4590  166.1410 C   0  0  0  0  0  0  0  0  0  0  0  0
  135.5820  -17.4250  166.9610 N   0  0  0  0  0  0  0  0  0  0  0  0
  137.0880  -16.1690  165.8390 N   0  0  0  0  0  0  0  0  0  0  0  0
  132.5790  -16.1010  166.1770 C   0  0  0  0  0  0  0  0  0  0  0  0
  131.2490  -16.3240  165.8050 C   0  0  0  0  0  0  0  0  0  0  0  0
  126.5520  -14.0310  162.8150 C   0  0  0  0  0  0  0  0  0  0  0  0
  127.1390  -12.7580  162.7370 C   0  0  0  0  0  0  0  0  0  0  0  0
  126.7920  -11.7540  163.6440 C   0  0  0  0  0  0  0  0  0  0  0  0
  125.8540  -12.0060  164.6430 C   0  0  0  0  0  0  0  0  0  0  0  0
  125.2650  -13.2680  164.7370 C   0  0  0  0  0  0  0  0  0  0  0  0
  124.2570  -13.5370  165.7940 C   0  0  0  0  0  0  0  0  0  0  0  0
  123.4160  -14.5180  165.7120 N   0  0  0  0  0  0  0  0  0  0  0  0
  124.1860  -12.7410  166.8890 N   0  0  0  0  0  0  0  0  0  0  0  0
  125.6100  -14.2760  163.8280 C   0  0  0  0  0  0  0  0  0  0  0  0
  1  2  1  0
  2  3  1  0
  3  4  2  0
  3  5  1  0
  6  5  1  1
  6  7  1  0
  7  8  1  0
  8  9  1  0
  9 10  1  0
 10 11  1  0
 11 12  2  0
 12 13  1  0
 13 14  2  0
 14 15  1  0
 15 16  1  0
 16 17  2  3
 16 18  1  0
 14 19  1  0
 19 20  2  0
  6 21  1  0
 21 22  2  0
 22 23  1  0
 23 24  2  0
 24 25  1  0
 25 26  1  0
 26 27  2  3
 26 28  1  0
 25 29  2  0
 20 11  1  0
 29 21  1  0
M  END
$$$$
