FMXAKYUKNGWYKW-UHFFFAOYSA-N_6LXA_m1
     RDKit          3D

 36 38  0  0  0  0  0  0  0  0999 V2000
    7.6180   15.3450  -10.1290 C   0  0  0  0  0  0  0  0  0  0  0  0
    8.1430   15.3570   -8.7000 C   0  0  0  0  0  0  0  0  0  0  0  0
    8.9570   14.1080   -8.3450 C   0  0  0  0  0  0  0  0  0  0  0  0
   10.2970   14.4380   -7.6770 C   0  0  0  0  0  0  0  0  0  0  0  0
   10.7480   13.2970   -6.8340 N   0  0  0  0  0  0  0  0  0  0  0  0
   10.0230   12.0520   -6.9520 C   0  0  0  0  0  0  0  0  0  0  0  0
    9.0380   11.7250   -6.0090 C   0  0  0  0  0  0  0  0  0  0  0  0
    8.3860   10.4980   -6.0630 C   0  0  0  0  0  0  0  0  0  0  0  0
    8.7280    9.5790   -7.0520 C   0  0  0  0  0  0  0  0  0  0  0  0
    9.7140    9.8750   -8.0110 C   0  0  0  0  0  0  0  0  0  0  0  0
   10.0550    8.8420   -9.0020 C   0  0  0  0  0  0  0  0  0  0  0  0
   10.2940    7.5190   -8.6000 C   0  0  0  0  0  0  0  0  0  0  0  0
   10.5990    6.5310   -9.5390 C   0  0  0  0  0  0  0  0  0  0  0  0
   10.6660    6.8620  -10.8910 C   0  0  0  0  0  0  0  0  0  0  0  0
   11.0420    5.6460  -12.0480 Cl  0  0  0  0  0  0  0  0  0  0  0  0
   10.4290    8.1690  -11.3120 C   0  0  0  0  0  0  0  0  0  0  0  0
   10.1240    9.1540  -10.3690 C   0  0  0  0  0  0  0  0  0  0  0  0
   10.3570   11.1380   -7.9750 C   0  0  0  0  0  0  0  0  0  0  0  0
   11.3960   11.4860   -9.0170 C   0  0  0  0  0  0  0  0  0  0  0  0
   11.3290   13.6850   -5.2600 S   0  0  0  0  0  0  0  0  0  0  0  0
   11.5490   12.4350   -4.5540 O   0  0  0  0  0  0  0  0  0  0  0  0
   10.4860   14.6930   -4.6540 O   0  0  0  0  0  0  0  0  0  0  0  0
   12.9600   14.3920   -5.5720 C   0  0  0  0  0  0  0  0  0  0  0  0
   13.3290   14.4780   -6.9260 C   0  0  0  0  0  0  0  0  0  0  0  0
   14.5740   14.9730   -7.2900 C   0  0  0  0  0  0  0  0  0  0  0  0
   15.4770   15.3640   -6.3050 C   0  0  0  0  0  0  0  0  0  0  0  0
   16.6990   15.8670   -6.6730 O   0  0  0  0  0  0  0  0  0  0  0  0
   17.4930   14.9260   -7.4120 C   0  0  1  0  0  0  0  0  0  0  0  0
   17.7400   15.5220   -8.7940 C   0  0  0  0  0  0  0  0  0  0  0  0
   18.8330   14.6980   -6.7160 C   0  0  0  0  0  0  0  0  0  0  0  0
   19.0770   14.7690   -5.5230 O   0  0  0  0  0  0  0  0  0  0  0  0
   19.8200   14.3850   -7.5850 O   0  0  0  0  0  0  0  0  0  0  0  0
   15.1310   15.3150   -4.9400 C   0  0  0  0  0  0  0  0  0  0  0  0
   16.1160   15.8050   -3.9030 C   0  0  0  0  0  0  0  0  0  0  0  0
   13.8580   14.7980   -4.5530 C   0  0  0  0  0  0  0  0  0  0  0  0
   13.5390   14.6340   -3.0870 C   0  0  0  0  0  0  0  0  0  0  0  0
  1  2  1  0
  2  3  1  0
  3  4  1  0
  4  5  1  0
  5  6  1  0
  6  7  2  0
  7  8  1  0
  8  9  2  0
  9 10  1  0
 10 11  1  0
 11 12  2  0
 12 13  1  0
 13 14  2  0
 14 15  1  0
 14 16  1  0
 16 17  2  0
 10 18  2  0
 18 19  1  0
  5 20  1  0
 20 21  2  0
 20 22  2  0
 20 23  1  0
 23 24  2  0
 24 25  1  0
 25 26  2  0
 26 27  1  0
 27 28  1  0
 28 29  1  6
 28 30  1  0
 30 31  2  0
 30 32  1  0
 26 33  1  0
 33 34  1  0
 33 35  2  0
 35 36  1  0
 18  6  1  0
 35 23  1  0
 17 11  1  0
M  END
$$$$
