FPOUNMXAICPJAF-OZAIVSQSSA-N_6N7A_m2
     RDKit          3D

 33 37  0  0  0  0  0  0  0  0999 V2000
    4.5320  -29.2080   22.7730 C   0  0  0  0  0  0  0  0  0  0  0  0
    5.4860  -28.1080   23.1480 C   0  0  0  0  0  0  0  0  0  0  0  0
    6.5220  -28.4870   23.9400 N   0  0  0  0  0  0  0  0  0  0  0  0
    7.4060  -27.5400   24.3060 C   0  0  0  0  0  0  0  0  0  0  0  0
    7.3140  -26.2150   23.9240 C   0  0  0  0  0  0  0  0  0  0  0  0
    6.2490  -25.8210   23.1090 C   0  0  0  0  0  0  0  0  0  0  0  0
    6.1170  -24.4830   22.6910 C   0  0  0  0  0  0  0  0  0  0  0  0
    5.0590  -24.0720   21.8710 C   0  0  0  0  0  0  0  0  0  0  0  0
    5.0160  -22.7130   21.5020 N   0  0  0  0  0  0  0  0  0  0  0  0
    4.8520  -22.1900   20.2390 C   0  0  0  0  0  0  0  0  0  0  0  0
    4.7250  -22.7890   19.1830 O   0  0  0  0  0  0  0  0  0  0  0  0
    4.8750  -20.7010   20.2240 C   0  0  2  0  0  0  0  0  0  0  0  0
    5.5060  -19.9060   21.3390 C   0  0  0  0  0  0  0  0  0  0  0  0
    4.0020  -19.9430   21.2130 C   0  0  1  0  0  0  0  0  0  0  0  0
    3.2270  -18.7420   20.7280 C   0  0  0  0  0  0  0  0  0  0  0  0
    3.1290  -17.5650   21.4890 C   0  0  0  0  0  0  0  0  0  0  0  0
    2.4030  -16.4610   21.0350 C   0  0  0  0  0  0  0  0  0  0  0  0
    1.7580  -16.5230   19.8010 C   0  0  0  0  0  0  0  0  0  0  0  0
    0.8070  -15.1280   19.2360 S   0  0  0  0  0  0  0  0  0  0  0  0
    1.7070  -14.2670   18.4950 O   0  0  0  0  0  0  0  0  0  0  0  0
    0.0520  -14.6150   20.3610 O   0  0  0  0  0  0  0  0  0  0  0  0
   -0.2480  -15.7970   18.1060 N   0  0  0  0  0  0  0  0  0  0  0  0
   -1.6120  -15.8150   18.4490 C   0  0  0  0  0  0  0  0  0  0  0  0
   -2.4520  -14.7280   18.2750 C   0  0  0  0  0  0  0  0  0  0  0  0
   -3.7750  -14.8570   18.6850 C   0  0  0  0  0  0  0  0  0  0  0  0
   -4.2020  -16.0590   19.2400 C   0  0  0  0  0  0  0  0  0  0  0  0
   -3.2800  -17.0900   19.3580 C   0  0  0  0  0  0  0  0  0  0  0  0
   -1.9880  -16.9960   18.9710 N   0  0  0  0  0  0  0  0  0  0  0  0
    1.8040  -17.6910   19.0380 C   0  0  0  0  0  0  0  0  0  0  0  0
    2.5420  -18.7830   19.5000 C   0  0  0  0  0  0  0  0  0  0  0  0
    4.1190  -25.0170   21.4680 C   0  0  0  0  0  0  0  0  0  0  0  0
    4.2360  -26.3500   21.8760 C   0  0  0  0  0  0  0  0  0  0  0  0
    5.3000  -26.7800   22.7000 C   0  0  0  0  0  0  0  0  0  0  0  0
  1  2  1  0
  2  3  2  0
  3  4  1  0
  4  5  2  0
  5  6  1  0
  6  7  2  0
  7  8  1  0
  8  9  1  0
  9 10  1  0
 10 11  2  0
 12 10  1  1
 12 13  1  0
 13 14  1  0
 14 15  1  6
 15 16  2  0
 16 17  1  0
 17 18  2  0
 18 19  1  0
 19 20  2  0
 19 21  2  0
 19 22  1  0
 22 23  1  0
 23 24  2  0
 24 25  1  0
 25 26  2  0
 26 27  1  0
 27 28  2  0
 18 29  1  0
 29 30  2  0
  8 31  2  0
 31 32  1  0
 32 33  2  0
 33  2  1  0
 33  6  1  0
 14 12  1  0
 30 15  1  0
 28 23  1  0
M  END
$$$$
