FPXPNQMJSUYWAC-UHFFFAOYSA-N_5U3Q_m8
     RDKit          3D

 36 38  0  0  0  0  0  0  0  0999 V2000
   44.2430  -44.4170  108.1090 C   0  0  0  0  0  0  0  0  0  0  0  0
   44.6670  -43.4990  106.9710 C   0  0  0  0  0  0  0  0  0  0  0  0
   43.8540  -42.2060  106.8980 C   0  0  0  0  0  0  0  0  0  0  0  0
   43.9990  -41.4810  105.5570 C   0  0  0  0  0  0  0  0  0  0  0  0
   43.0050  -40.3640  105.4720 N   0  0  0  0  0  0  0  0  0  0  0  0
   42.6970  -39.9160  104.1270 C   0  0  0  0  0  0  0  0  0  0  0  0
   41.8260  -38.8370  103.9310 C   0  0  0  0  0  0  0  0  0  0  0  0
   41.5180  -38.4040  102.6460 C   0  0  0  0  0  0  0  0  0  0  0  0
   42.0750  -39.0550  101.5490 C   0  0  0  0  0  0  0  0  0  0  0  0
   42.9460  -40.1480  101.7130 C   0  0  0  0  0  0  0  0  0  0  0  0
   43.4720  -40.8080  100.5090 C   0  0  0  0  0  0  0  0  0  0  0  0
   42.8690  -40.6020   99.2590 C   0  0  0  0  0  0  0  0  0  0  0  0
   43.3680  -41.2280   98.1130 C   0  0  0  0  0  0  0  0  0  0  0  0
   44.4840  -42.0680   98.1940 C   0  0  0  0  0  0  0  0  0  0  0  0
   45.0070  -42.7630   96.9700 C   0  0  0  0  0  0  0  0  0  0  0  0
   45.0760  -42.2940   99.4400 C   0  0  0  0  0  0  0  0  0  0  0  0
   44.5770  -41.6680  100.5860 C   0  0  0  0  0  0  0  0  0  0  0  0
   43.2740  -40.5800  103.0230 C   0  0  0  0  0  0  0  0  0  0  0  0
   44.1690  -41.7770  103.2290 C   0  0  0  0  0  0  0  0  0  0  0  0
   43.2950  -39.0570  106.5620 S   0  0  0  0  0  0  0  0  0  0  0  0
   44.3010  -39.5060  107.5020 O   0  0  0  0  0  0  0  0  0  0  0  0
   43.4730  -37.8330  105.8090 O   0  0  0  0  0  0  0  0  0  0  0  0
   41.6950  -38.9130  107.3740 C   0  0  0  0  0  0  0  0  0  0  0  0
   40.6920  -39.7400  106.8430 C   0  0  0  0  0  0  0  0  0  0  0  0
   39.4170  -39.7430  107.3960 C   0  0  0  0  0  0  0  0  0  0  0  0
   39.1380  -38.9220  108.4860 C   0  0  0  0  0  0  0  0  0  0  0  0
   37.8810  -38.9430  109.0350 O   0  0  0  0  0  0  0  0  0  0  0  0
   36.8740  -38.4710  108.1280 C   0  0  1  0  0  0  0  0  0  0  0  0
   35.5690  -39.1680  108.4910 C   0  0  0  0  0  0  0  0  0  0  0  0
   36.7070  -36.9590  108.2600 C   0  0  0  0  0  0  0  0  0  0  0  0
   36.7830  -36.1130  107.3820 O   0  0  0  0  0  0  0  0  0  0  0  0
   36.4190  -36.5720  109.5250 O   0  0  0  0  0  0  0  0  0  0  0  0
   40.1380  -38.1200  109.0730 C   0  0  0  0  0  0  0  0  0  0  0  0
   39.8070  -37.3080  110.3020 C   0  0  0  0  0  0  0  0  0  0  0  0
   41.4270  -38.0600  108.4730 C   0  0  0  0  0  0  0  0  0  0  0  0
   42.4690  -37.1110  109.0070 C   0  0  0  0  0  0  0  0  0  0  0  0
  1  2  1  0
  2  3  1  0
  3  4  1  0
  4  5  1  0
  5  6  1  0
  6  7  2  0
  7  8  1  0
  8  9  2  0
  9 10  1  0
 10 11  1  0
 11 12  2  0
 12 13  1  0
 13 14  2  0
 14 15  1  0
 14 16  1  0
 16 17  2  0
 10 18  2  0
 18 19  1  0
  5 20  1  0
 20 21  2  0
 20 22  2  0
 20 23  1  0
 23 24  2  0
 24 25  1  0
 25 26  2  0
 26 27  1  0
 27 28  1  0
 28 29  1  1
 28 30  1  0
 30 31  2  0
 30 32  1  0
 26 33  1  0
 33 34  1  0
 33 35  2  0
 35 36  1  0
 18  6  1  0
 35 23  1  0
 17 11  1  0
M  END
$$$$
