FRQFIGQZHAECJO-FNORWQNLSA-N_3POZ_m7
     RDKit          3D

 39 42  0  0  0  0  0  0  0  0999 V2000
   13.4770   33.7060   14.1110 C   0  0  0  0  0  0  0  0  0  0  0  0
   14.8670   33.6400   13.8130 O   0  0  0  0  0  0  0  0  0  0  0  0
   15.7210   34.3130   14.6540 C   0  0  0  0  0  0  0  0  0  0  0  0
   15.4800   34.5650   16.0070 C   0  0  0  0  0  0  0  0  0  0  0  0
   16.3960   35.2480   16.7980 C   0  0  0  0  0  0  0  0  0  0  0  0
   16.0930   35.4310   18.0910 N   0  0  0  0  0  0  0  0  0  0  0  0
   16.9860   36.0810   18.8700 C   0  0  0  0  0  0  0  0  0  0  0  0
   18.1980   36.5740   18.4240 C   0  0  0  0  0  0  0  0  0  0  0  0
   19.0240   37.2860   19.3500 C   0  0  0  0  0  0  0  0  0  0  0  0
   19.6530   37.8490   20.1450 N   0  0  0  0  0  0  0  0  0  0  0  0
   18.5220   36.3980   17.0700 C   0  0  0  0  0  0  0  0  0  0  0  0
   19.7460   36.8640   16.5300 N   0  0  0  0  0  0  0  0  0  0  0  0
   20.7920   36.1580   15.9120 C   0  0  0  0  0  0  0  0  0  0  0  0
   21.4100   36.5980   14.7390 C   0  0  0  0  0  0  0  0  0  0  0  0
   22.4360   35.8530   14.1360 C   0  0  0  0  0  0  0  0  0  0  0  0
   22.8680   34.6370   14.6730 C   0  0  0  0  0  0  0  0  0  0  0  0
   23.8930   33.8950   14.1090 N   0  0  0  0  0  0  0  0  0  0  0  0
   24.5610   34.2010   12.8650 C   0  0  0  0  0  0  0  0  0  0  0  0
   25.5570   33.1240   12.5360 C   0  0  0  0  0  0  0  0  0  0  0  0
   25.5240   32.4470   11.3120 C   0  0  0  0  0  0  0  0  0  0  0  0
   26.4660   31.4580   11.0430 C   0  0  0  0  0  0  0  0  0  0  0  0
   27.4140   31.1750   12.0120 C   0  0  0  0  0  0  0  0  0  0  0  0
   27.4810   31.8060   13.2030 N   0  0  0  0  0  0  0  0  0  0  0  0
   26.5580   32.7680   13.4360 C   0  0  0  0  0  0  0  0  0  0  0  0
   22.2270   34.1970   15.8490 C   0  0  0  0  0  0  0  0  0  0  0  0
   22.6930   32.7020   16.5950 Cl  0  0  0  0  0  0  0  0  0  0  0  0
   21.2060   34.9400   16.4550 C   0  0  0  0  0  0  0  0  0  0  0  0
   17.6000   35.7090   16.2270 C   0  0  0  0  0  0  0  0  0  0  0  0
   17.8400   35.4500   14.8570 C   0  0  0  0  0  0  0  0  0  0  0  0
   16.9130   34.7660   14.0690 C   0  0  0  0  0  0  0  0  0  0  0  0
   17.1120   34.4790   12.6990 N   0  0  0  0  0  0  0  0  0  0  0  0
   17.9870   33.5740   12.1420 C   0  0  0  0  0  0  0  0  0  0  0  0
   18.8100   32.8860   12.7320 O   0  0  0  0  0  0  0  0  0  0  0  0
   17.8400   33.5040   10.6610 C   0  0  0  0  0  0  0  0  0  0  0  0
   18.0030   32.3390   10.0110 C   0  0  0  0  0  0  0  0  0  0  0  0
   17.8610   32.1210    8.5290 C   0  0  0  0  0  0  0  0  0  0  0  0
   16.9790   31.0060    8.1500 N   0  0  0  0  0  0  0  0  0  0  0  0
   15.6180   31.4960    7.9170 C   0  0  0  0  0  0  0  0  0  0  0  0
   17.4700   30.3420    6.9350 C   0  0  0  0  0  0  0  0  0  0  0  0
  1  2  1  0
  2  3  1  0
  3  4  2  0
  4  5  1  0
  5  6  2  0
  6  7  1  0
  7  8  2  0
  8  9  1  0
  9 10  3  0
  8 11  1  0
 11 12  1  0
 12 13  1  0
 13 14  2  0
 14 15  1  0
 15 16  2  0
 16 17  1  0
 17 18  1  0
 18 19  1  0
 19 20  2  0
 20 21  1  0
 21 22  2  0
 22 23  1  0
 23 24  2  0
 16 25  1  0
 25 26  1  0
 25 27  2  0
 11 28  2  0
 28 29  1  0
 29 30  2  0
 30 31  1  0
 31 32  1  0
 32 33  2  0
 32 34  1  0
 34 35  2  0
 35 36  1  0
 36 37  1  0
 37 38  1  0
 37 39  1  0
 30  3  1  0
 28  5  1  0
 27 13  1  0
 24 19  1  0
M  END
$$$$
