FRQFIGQZHAECJO-FNORWQNLSA-N_3RCD_m2
     RDKit          3D

 39 42  0  0  0  0  0  0  0  0999 V2000
   15.2610    7.8170   23.8700 C   0  0  0  0  0  0  0  0  0  0  0  0
   14.3300    7.2980   24.8130 O   0  0  0  0  0  0  0  0  0  0  0  0
   14.5240    6.0060   25.2400 C   0  0  0  0  0  0  0  0  0  0  0  0
   15.7590    5.3550   25.2900 C   0  0  0  0  0  0  0  0  0  0  0  0
   15.8790    4.0470   25.7420 C   0  0  0  0  0  0  0  0  0  0  0  0
   17.1040    3.5050   25.7750 N   0  0  0  0  0  0  0  0  0  0  0  0
   17.2300    2.2370   26.2260 C   0  0  0  0  0  0  0  0  0  0  0  0
   16.1760    1.4540   26.6610 C   0  0  0  0  0  0  0  0  0  0  0  0
   16.4510    0.1110   27.0670 C   0  0  0  0  0  0  0  0  0  0  0  0
   16.7330   -0.9670   27.3890 N   0  0  0  0  0  0  0  0  0  0  0  0
   14.8870    2.0070   26.6220 C   0  0  0  0  0  0  0  0  0  0  0  0
   13.7520    1.2800   27.0550 N   0  0  0  0  0  0  0  0  0  0  0  0
   12.9050    1.4910   28.1560 C   0  0  0  0  0  0  0  0  0  0  0  0
   11.5360    1.7370   28.0220 C   0  0  0  0  0  0  0  0  0  0  0  0
   10.7260    1.9680   29.1440 C   0  0  0  0  0  0  0  0  0  0  0  0
   11.2560    1.9780   30.4380 C   0  0  0  0  0  0  0  0  0  0  0  0
   10.4740    2.1810   31.5630 N   0  0  0  0  0  0  0  0  0  0  0  0
   10.1610    1.1780   32.5560 C   0  0  0  0  0  0  0  0  0  0  0  0
    9.5550   -0.0290   31.8960 C   0  0  0  0  0  0  0  0  0  0  0  0
    8.1920   -0.0830   31.5830 C   0  0  0  0  0  0  0  0  0  0  0  0
    7.6680   -1.2170   30.9690 C   0  0  0  0  0  0  0  0  0  0  0  0
    8.5270   -2.2660   30.6880 C   0  0  0  0  0  0  0  0  0  0  0  0
    9.8470   -2.2520   30.9710 N   0  0  0  0  0  0  0  0  0  0  0  0
   10.3310   -1.1340   31.5620 C   0  0  0  0  0  0  0  0  0  0  0  0
   12.6410    1.7420   30.5600 C   0  0  0  0  0  0  0  0  0  0  0  0
   13.3940    1.7300   32.1230 Cl  0  0  0  0  0  0  0  0  0  0  0  0
   13.4510    1.5070   29.4410 C   0  0  0  0  0  0  0  0  0  0  0  0
   14.7260    3.3460   26.1550 C   0  0  0  0  0  0  0  0  0  0  0  0
   13.4780    4.0100   26.1040 C   0  0  0  0  0  0  0  0  0  0  0  0
   13.3670    5.3230   25.6460 C   0  0  0  0  0  0  0  0  0  0  0  0
   12.1430    6.0280   25.5820 N   0  0  0  0  0  0  0  0  0  0  0  0
   11.1410    5.9020   24.6470 C   0  0  0  0  0  0  0  0  0  0  0  0
   11.1500    5.1940   23.6490 O   0  0  0  0  0  0  0  0  0  0  0  0
    9.9700    6.7630   24.9730 C   0  0  0  0  0  0  0  0  0  0  0  0
   10.1450    7.9840   25.5050 C   0  0  0  0  0  0  0  0  0  0  0  0
    9.0600    8.9640   25.8590 C   0  0  0  0  0  0  0  0  0  0  0  0
    8.6810    9.8860   24.7780 N   0  0  0  0  0  0  0  0  0  0  0  0
    9.6690    9.8310   23.6980 C   0  0  0  0  0  0  0  0  0  0  0  0
    7.3570    9.5470   24.2410 C   0  0  0  0  0  0  0  0  0  0  0  0
  1  2  1  0
  2  3  1  0
  3  4  2  0
  4  5  1  0
  5  6  2  0
  6  7  1  0
  7  8  2  0
  8  9  1  0
  9 10  3  0
  8 11  1  0
 11 12  1  0
 12 13  1  0
 13 14  2  0
 14 15  1  0
 15 16  2  0
 16 17  1  0
 17 18  1  0
 18 19  1  0
 19 20  2  0
 20 21  1  0
 21 22  2  0
 22 23  1  0
 23 24  2  0
 16 25  1  0
 25 26  1  0
 25 27  2  0
 11 28  2  0
 28 29  1  0
 29 30  2  0
 30 31  1  0
 31 32  1  0
 32 33  2  0
 32 34  1  0
 34 35  2  0
 35 36  1  0
 36 37  1  0
 37 38  1  0
 37 39  1  0
 30  3  1  0
 28  5  1  0
 27 13  1  0
 24 19  1  0
M  END
$$$$
