FRXCAWLUZSBOKN-RTBURBONSA-N_3LXP_m6
     RDKit          3D

 33 37  0  0  0  0  0  0  0  0999 V2000
   -0.9280   23.3330  -27.8730 O   0  0  0  0  0  0  0  0  0  0  0  0
   -1.8430   22.7960  -27.2520 C   0  0  0  0  0  0  0  0  0  0  0  0
   -1.8050   22.6950  -25.8830 N   0  0  0  0  0  0  0  0  0  0  0  0
   -0.7570   23.3330  -25.0740 C   0  0  2  0  0  0  0  0  0  0  0  0
   -0.3470   22.4770  -23.8690 C   0  0  0  0  0  0  0  0  0  0  0  0
   -0.2170   23.2590  -22.6800 O   0  0  0  0  0  0  0  0  0  0  0  0
   -1.2850   24.6820  -24.5970 C   0  0  0  0  0  0  0  0  0  0  0  0
   -2.4570   24.8830  -24.2890 O   0  0  0  0  0  0  0  0  0  0  0  0
   -0.2900   25.6070  -24.5790 O   0  0  0  0  0  0  0  0  0  0  0  0
   -0.1010   26.3440  -25.7930 C   0  0  0  0  0  0  0  0  0  0  0  0
    1.3360   26.2120  -26.2220 C   0  0  0  0  0  0  0  0  0  0  0  0
    2.1510   25.2010  -25.6960 C   0  0  0  0  0  0  0  0  0  0  0  0
    3.4920   25.1060  -26.0690 C   0  0  0  0  0  0  0  0  0  0  0  0
    4.0340   26.0230  -26.9680 C   0  0  0  0  0  0  0  0  0  0  0  0
    3.2370   27.0370  -27.4910 C   0  0  0  0  0  0  0  0  0  0  0  0
    1.8950   27.1340  -27.1200 C   0  0  0  0  0  0  0  0  0  0  0  0
   -3.0550   22.1350  -27.9190 C   0  0  1  0  0  0  0  0  0  0  0  0
   -4.3610   22.8850  -27.6210 C   0  0  0  0  0  0  0  0  0  0  0  0
   -4.3930   24.2370  -28.3330 C   0  0  0  0  0  0  0  0  0  0  0  0
   -4.1890   24.0410  -29.7660 N   0  0  0  0  0  0  0  0  0  0  0  0
   -4.5470   25.1260  -30.5700 C   0  0  0  0  0  0  0  0  0  0  0  0
   -4.2380   26.3890  -30.1630 N   0  0  0  0  0  0  0  0  0  0  0  0
   -4.5730   27.4360  -30.9430 C   0  0  0  0  0  0  0  0  0  0  0  0
   -5.2130   27.4220  -32.1210 N   0  0  0  0  0  0  0  0  0  0  0  0
   -5.5340   26.1700  -32.4770 C   0  0  0  0  0  0  0  0  0  0  0  0
   -6.2160   25.8460  -33.6180 N   0  0  0  0  0  0  0  0  0  0  0  0
   -6.4160   24.4910  -33.6690 C   0  0  0  0  0  0  0  0  0  0  0  0
   -5.8410   23.9420  -32.5420 C   0  0  0  0  0  0  0  0  0  0  0  0
   -5.2550   25.0000  -31.7850 C   0  0  0  0  0  0  0  0  0  0  0  0
   -2.9700   23.3410  -30.1650 C   0  0  0  0  0  0  0  0  0  0  0  0
   -2.9010   22.0110  -29.4310 C   0  0  0  0  0  0  0  0  0  0  0  0
   -1.9960   20.9240  -29.9850 C   0  0  0  0  0  0  0  0  0  0  0  0
   -3.4880   20.7830  -30.1110 C   0  0  0  0  0  0  0  0  0  0  0  0
  1  2  2  0
  2  3  1  0
  3  4  1  0
  4  5  1  1
  5  6  1  0
  4  7  1  0
  7  8  2  0
  7  9  1  0
  9 10  1  0
 10 11  1  0
 11 12  2  0
 12 13  1  0
 13 14  2  0
 14 15  1  0
 15 16  2  0
 17  2  1  6
 17 18  1  0
 18 19  1  0
 19 20  1  0
 20 21  1  0
 21 22  2  0
 22 23  1  0
 23 24  2  0
 24 25  1  0
 25 26  1  0
 26 27  1  0
 27 28  2  0
 28 29  1  0
 20 30  1  0
 30 31  1  0
 31 32  1  0
 32 33  1  0
 16 11  1  0
 31 17  1  0
 29 21  1  0
 33 31  1  0
 29 25  2  0
M  END
$$$$
