FSPWFVDHHHVWMS-UHFFFAOYSA-N_6N7A_m1
     RDKit          3D

 44 48  0  0  0  0  0  0  0  0999 V2000
    4.0720  -18.4970   17.8780 C   0  0  0  0  0  0  0  0  0  0  0  0
    4.3800  -17.7290   19.0980 N   0  0  0  0  0  0  0  0  0  0  0  0
    3.9300  -18.2800   20.3530 C   0  0  0  0  0  0  0  0  0  0  0  0
    2.5590  -18.4490   20.5910 C   0  0  0  0  0  0  0  0  0  0  0  0
    2.1040  -18.9220   21.8220 C   0  0  0  0  0  0  0  0  0  0  0  0
    3.0150  -19.2210   22.8290 C   0  0  0  0  0  0  0  0  0  0  0  0
    4.3810  -19.0520   22.6040 C   0  0  0  0  0  0  0  0  0  0  0  0
    4.8610  -18.5850   21.3640 C   0  0  0  0  0  0  0  0  0  0  0  0
    6.3530  -18.4260   21.1670 C   0  0  0  0  0  0  0  0  0  0  0  0
    7.0820  -19.1670   22.1760 N   0  0  0  0  0  0  0  0  0  0  0  0
    7.6890  -20.3600   21.8660 C   0  0  0  0  0  0  0  0  0  0  0  0
    7.0090  -21.5230   22.0330 N   0  0  0  0  0  0  0  0  0  0  0  0
    7.6090  -22.7060   21.7870 C   0  0  0  0  0  0  0  0  0  0  0  0
    6.8050  -23.9240   22.0200 C   0  0  0  0  0  0  0  0  0  0  0  0
    7.1770  -24.7650   23.0930 C   0  0  0  0  0  0  0  0  0  0  0  0
    6.4970  -25.9480   23.3450 C   0  0  0  0  0  0  0  0  0  0  0  0
    6.8760  -26.7330   24.3630 F   0  0  0  0  0  0  0  0  0  0  0  0
    5.4360  -26.3320   22.5420 C   0  0  0  0  0  0  0  0  0  0  0  0
    4.7700  -27.5020   22.7680 O   0  0  0  0  0  0  0  0  0  0  0  0
    5.0320  -25.5280   21.4840 C   0  0  0  0  0  0  0  0  0  0  0  0
    5.6830  -24.3040   21.2180 C   0  0  0  0  0  0  0  0  0  0  0  0
    5.2020  -23.4360   20.0570 C   0  0  0  0  0  0  0  0  0  0  0  0
    4.0340  -22.4930   20.3160 C   0  0  0  0  0  0  0  0  0  0  0  0
    4.0490  -21.4060   19.5170 F   0  0  0  0  0  0  0  0  0  0  0  0
    4.0560  -22.0540   21.5980 F   0  0  0  0  0  0  0  0  0  0  0  0
    2.8460  -23.1190   20.1410 F   0  0  0  0  0  0  0  0  0  0  0  0
    8.8650  -22.8830   21.3300 N   0  0  0  0  0  0  0  0  0  0  0  0
    9.5000  -21.7160   21.1640 C   0  0  0  0  0  0  0  0  0  0  0  0
   10.7790  -21.5520   20.7290 N   0  0  0  0  0  0  0  0  0  0  0  0
   11.1740  -20.2640   20.6570 N   0  0  0  0  0  0  0  0  0  0  0  0
   10.0810  -19.5760   21.0700 C   0  0  0  0  0  0  0  0  0  0  0  0
   10.0850  -18.1080   21.1310 C   0  0  0  0  0  0  0  0  0  0  0  0
   10.8290  -17.5090   20.1540 N   0  0  0  0  0  0  0  0  0  0  0  0
    9.4810  -17.4480   21.9710 O   0  0  0  0  0  0  0  0  0  0  0  0
    9.0070  -20.4490   21.4020 C   0  0  0  0  0  0  0  0  0  0  0  0
    4.3670  -16.0240   18.9570 S   0  0  0  0  0  0  0  0  0  0  0  0
    4.8910  -15.6870   17.6480 O   0  0  0  0  0  0  0  0  0  0  0  0
    4.9590  -15.4430   20.1450 O   0  0  0  0  0  0  0  0  0  0  0  0
    2.6380  -15.6060   18.9630 C   0  0  0  0  0  0  0  0  0  0  0  0
    2.1070  -14.8750   20.0320 C   0  0  0  0  0  0  0  0  0  0  0  0
    0.7560  -14.5270   20.0230 C   0  0  0  0  0  0  0  0  0  0  0  0
   -0.0510  -14.8890   18.9430 C   0  0  0  0  0  0  0  0  0  0  0  0
    0.4880  -15.5940   17.8650 C   0  0  0  0  0  0  0  0  0  0  0  0
    1.8380  -15.9490   17.8680 C   0  0  0  0  0  0  0  0  0  0  0  0
  1  2  1  0
  2  3  1  0
  3  4  2  0
  4  5  1  0
  5  6  2  0
  6  7  1  0
  7  8  2  0
  8  9  1  0
  9 10  1  0
 10 11  1  0
 11 12  2  0
 12 13  1  0
 13 14  1  0
 14 15  2  0
 15 16  1  0
 16 17  1  0
 16 18  2  0
 18 19  1  0
 18 20  1  0
 20 21  2  0
 21 22  1  0
 22 23  1  0
 23 24  1  0
 23 25  1  0
 23 26  1  0
 13 27  2  0
 27 28  1  0
 28 29  1  0
 29 30  1  0
 30 31  2  0
 31 32  1  0
 32 33  1  0
 32 34  2  0
 31 35  1  0
  2 36  1  0
 36 37  2  0
 36 38  2  0
 36 39  1  0
 39 40  2  0
 40 41  1  0
 41 42  2  0
 42 43  1  0
 43 44  2  0
  8  3  1  0
 35 11  1  0
 44 39  1  0
 21 14  1  0
 35 28  2  0
M  END
$$$$
