FTSYURCNSVPOMF-UHFFFAOYSA-N_3LXP_m5
     RDKit          3D

 28 31  0  0  0  0  0  0  0  0999 V2000
   -5.7290   29.7100  -31.4150 O   0  0  0  0  0  0  0  0  0  0  0  0
   -5.3260   28.4300  -31.1680 C   0  0  0  0  0  0  0  0  0  0  0  0
   -6.0430   27.3860  -31.7310 C   0  0  0  0  0  0  0  0  0  0  0  0
   -5.6640   26.0430  -31.5020 C   0  0  0  0  0  0  0  0  0  0  0  0
   -6.4950   24.9710  -32.1900 C   0  0  0  0  0  0  0  0  0  0  0  0
   -6.3580   24.9350  -33.7040 C   0  0  0  0  0  0  0  0  0  0  0  0
   -6.5930   23.6930  -34.1870 F   0  0  0  0  0  0  0  0  0  0  0  0
   -7.1910   25.7860  -34.3350 F   0  0  0  0  0  0  0  0  0  0  0  0
   -5.0940   25.2680  -34.0630 F   0  0  0  0  0  0  0  0  0  0  0  0
   -4.5310   25.7580  -30.6850 C   0  0  0  0  0  0  0  0  0  0  0  0
   -4.0390   24.3940  -30.3760 C   0  0  0  0  0  0  0  0  0  0  0  0
   -3.1060   24.2750  -29.4050 N   0  0  0  0  0  0  0  0  0  0  0  0
   -2.6120   23.0530  -29.0820 C   0  0  0  0  0  0  0  0  0  0  0  0
   -1.6630   22.9250  -28.0920 N   0  0  0  0  0  0  0  0  0  0  0  0
   -1.9260   22.1130  -26.9190 C   0  0  0  0  0  0  0  0  0  0  0  0
   -1.4840   22.8350  -25.6410 C   0  0  0  0  0  0  0  0  0  0  0  0
   -1.9020   24.2800  -25.6210 C   0  0  0  0  0  0  0  0  0  0  0  0
   -2.1160   24.9940  -24.3120 C   0  0  0  0  0  0  0  0  0  0  0  0
   -0.9280   25.3360  -25.1670 C   0  0  0  0  0  0  0  0  0  0  0  0
   -3.1060   21.9530  -29.7910 C   0  0  0  0  0  0  0  0  0  0  0  0
   -2.9290   20.5550  -29.8330 C   0  0  0  0  0  0  0  0  0  0  0  0
   -3.6940   19.9580  -30.7560 N   0  0  0  0  0  0  0  0  0  0  0  0
   -4.3700   20.9910  -31.3050 N   0  0  0  0  0  0  0  0  0  0  0  0
   -4.0500   22.2030  -30.7660 C   0  0  0  0  0  0  0  0  0  0  0  0
   -4.5540   23.3930  -31.1200 N   0  0  0  0  0  0  0  0  0  0  0  0
   -3.8260   26.8560  -30.1360 C   0  0  0  0  0  0  0  0  0  0  0  0
   -4.2230   28.1650  -30.3760 C   0  0  0  0  0  0  0  0  0  0  0  0
   -3.5360   29.1820  -29.8370 F   0  0  0  0  0  0  0  0  0  0  0  0
  1  2  1  0
  2  3  2  0
  3  4  1  0
  4  5  1  0
  5  6  1  0
  6  7  1  0
  6  8  1  0
  6  9  1  0
  4 10  2  0
 10 11  1  0
 11 12  2  0
 12 13  1  0
 13 14  1  0
 14 15  1  0
 15 16  1  0
 16 17  1  0
 17 18  1  0
 18 19  1  0
 13 20  2  0
 20 21  1  0
 21 22  2  0
 22 23  1  0
 23 24  1  0
 24 25  2  0
 10 26  1  0
 26 27  2  0
 27 28  1  0
 27  2  1  0
 25 11  1  0
 19 17  1  0
 24 20  1  0
M  END
$$$$
