FTSYURCNSVPOMF-UHFFFAOYSA-N_6N7A_m7
     RDKit          3D

 28 31  0  0  0  0  0  0  0  0999 V2000
    4.7880  -28.0650   23.0930 O   0  0  0  0  0  0  0  0  0  0  0  0
    4.7850  -26.8070   22.5650 C   0  0  0  0  0  0  0  0  0  0  0  0
    5.7860  -25.9240   22.9400 C   0  0  0  0  0  0  0  0  0  0  0  0
    5.8220  -24.6090   22.4200 C   0  0  0  0  0  0  0  0  0  0  0  0
    6.9780  -23.7290   22.8680 C   0  0  0  0  0  0  0  0  0  0  0  0
    8.3200  -24.0740   22.2430 C   0  0  0  0  0  0  0  0  0  0  0  0
    9.1450  -23.0020   22.2330 F   0  0  0  0  0  0  0  0  0  0  0  0
    8.9590  -25.0790   22.8750 F   0  0  0  0  0  0  0  0  0  0  0  0
    8.1470  -24.4540   20.9540 F   0  0  0  0  0  0  0  0  0  0  0  0
    4.8200  -24.1870   21.4970 C   0  0  0  0  0  0  0  0  0  0  0  0
    4.7580  -22.8380   20.8860 C   0  0  0  0  0  0  0  0  0  0  0  0
    5.8550  -22.4040   20.2250 N   0  0  0  0  0  0  0  0  0  0  0  0
    5.8610  -21.1740   19.6500 C   0  0  0  0  0  0  0  0  0  0  0  0
    6.9740  -20.7270   18.9740 N   0  0  0  0  0  0  0  0  0  0  0  0
    7.7660  -19.6310   19.5000 C   0  0  0  0  0  0  0  0  0  0  0  0
    8.7360  -20.1240   20.5800 C   0  0  0  0  0  0  0  0  0  0  0  0
    8.4760  -19.4920   21.9200 C   0  0  0  0  0  0  0  0  0  0  0  0
    7.1490  -18.8430   22.2130 C   0  0  0  0  0  0  0  0  0  0  0  0
    7.5110  -20.1410   22.8790 C   0  0  0  0  0  0  0  0  0  0  0  0
    4.7020  -20.4010   19.7770 C   0  0  0  0  0  0  0  0  0  0  0  0
    4.2280  -19.1320   19.3840 C   0  0  0  0  0  0  0  0  0  0  0  0
    2.9790  -18.8880   19.8010 N   0  0  0  0  0  0  0  0  0  0  0  0
    2.6530  -20.0180   20.4650 N   0  0  0  0  0  0  0  0  0  0  0  0
    3.6510  -20.9500   20.4830 C   0  0  0  0  0  0  0  0  0  0  0  0
    3.6110  -22.1520   21.0710 N   0  0  0  0  0  0  0  0  0  0  0  0
    3.8220  -25.1240   21.1380 C   0  0  0  0  0  0  0  0  0  0  0  0
    3.8100  -26.4080   21.6670 C   0  0  0  0  0  0  0  0  0  0  0  0
    2.8470  -27.2690   21.3100 F   0  0  0  0  0  0  0  0  0  0  0  0
  1  2  1  0
  2  3  2  0
  3  4  1  0
  4  5  1  0
  5  6  1  0
  6  7  1  0
  6  8  1  0
  6  9  1  0
  4 10  2  0
 10 11  1  0
 11 12  2  0
 12 13  1  0
 13 14  1  0
 14 15  1  0
 15 16  1  0
 16 17  1  0
 17 18  1  0
 18 19  1  0
 13 20  2  0
 20 21  1  0
 21 22  2  0
 22 23  1  0
 23 24  1  0
 24 25  2  0
 10 26  1  0
 26 27  2  0
 27 28  1  0
 27  2  1  0
 25 11  1  0
 19 17  1  0
 24 20  1  0
M  END
$$$$
