FVNMATFYGNOSRW-RTLBZRNLSA-N_5U3Q_m4
     RDKit          3D

 26 27  0  0  0  0  0  0  0  0999 V2000
   36.1770  -39.1960  109.2050 C   0  0  0  0  0  0  0  0  0  0  0  0
   36.0260  -38.4860  107.8740 C   0  0  0  0  0  0  0  0  0  0  0  0
   36.2060  -37.0880  108.0910 O   0  0  0  0  0  0  0  0  0  0  0  0
   36.3660  -36.3570  106.8690 C   0  0  1  0  0  0  0  0  0  0  0  0
   35.5970  -37.0940  105.7610 C   0  0  0  0  0  0  0  0  0  0  0  0
   36.4240  -37.2470  104.5010 C   0  0  0  0  0  0  0  0  0  0  0  0
   36.3560  -36.2860  103.4850 C   0  0  0  0  0  0  0  0  0  0  0  0
   37.1010  -36.4330  102.3090 C   0  0  0  0  0  0  0  0  0  0  0  0
   37.9230  -37.5450  102.1360 C   0  0  0  0  0  0  0  0  0  0  0  0
   38.6990  -37.8130  101.0420 O   0  0  0  0  0  0  0  0  0  0  0  0
   40.0160  -37.2700  101.0330 C   0  0  0  0  0  0  0  0  0  0  0  0
   40.9750  -38.4190  101.1310 C   0  0  0  0  0  0  0  0  0  0  0  0
   41.7100  -38.8770  100.1040 C   0  0  0  0  0  0  0  0  0  0  0  0
   42.6590  -39.9950  100.2020 C   0  0  0  0  0  0  0  0  0  0  0  0
   43.2500  -40.5750   99.0720 C   0  0  0  0  0  0  0  0  0  0  0  0
   44.1680  -41.6170   99.2160 C   0  0  0  0  0  0  0  0  0  0  0  0
   44.9510  -42.3910   97.6770 Br  0  0  0  0  0  0  0  0  0  0  0  0
   44.5180  -42.0900  100.4780 C   0  0  0  0  0  0  0  0  0  0  0  0
   43.9430  -41.5050  101.6020 C   0  0  0  0  0  0  0  0  0  0  0  0
   44.4130  -42.1280  103.3250 Br  0  0  0  0  0  0  0  0  0  0  0  0
   43.0230  -40.4610  101.4720 C   0  0  0  0  0  0  0  0  0  0  0  0
   37.9900  -38.5070  103.1460 C   0  0  0  0  0  0  0  0  0  0  0  0
   37.2470  -38.3640  104.3200 C   0  0  0  0  0  0  0  0  0  0  0  0
   35.8150  -34.9350  107.0120 C   0  0  0  0  0  0  0  0  0  0  0  0
   35.2980  -34.2510  106.1420 O   0  0  0  0  0  0  0  0  0  0  0  0
   35.9920  -34.4160  108.2470 O   0  0  0  0  0  0  0  0  0  0  0  0
  1  2  1  0
  2  3  1  0
  3  4  1  0
  4  5  1  6
  5  6  1  0
  6  7  2  0
  7  8  1  0
  8  9  2  0
  9 10  1  0
 10 11  1  0
 11 12  1  0
 12 13  2  0
 13 14  1  0
 14 15  2  0
 15 16  1  0
 16 17  1  0
 16 18  2  0
 18 19  1  0
 19 20  1  0
 19 21  2  0
  9 22  1  0
 22 23  2  0
  4 24  1  0
 24 25  2  0
 24 26  1  0
 23  6  1  0
 21 14  1  0
M  END
$$$$
