FWRLZLZAKAACSW-YESZJQIVSA-N_8BXH_m5
     RDKit          3D

 41 45  0  0  0  0  0  0  0  0999 V2000
  -18.7590   20.8880   20.0920 C   0  0  0  0  0  0  0  0  0  0  0  0
  -18.9410   19.4840   20.6720 C   0  0  2  0  0  0  0  0  0  0  0  0
  -17.8440   18.5110   20.1550 C   0  0  0  0  0  0  0  0  0  0  0  0
  -17.8910   18.0030   19.0390 O   0  0  0  0  0  0  0  0  0  0  0  0
  -16.8240   18.3670   21.0800 N   0  0  0  0  0  0  0  0  0  0  0  0
  -15.6130   17.6580   20.9870 C   0  0  0  0  0  0  0  0  0  0  0  0
  -14.4440   18.3620   21.3280 C   0  0  0  0  0  0  0  0  0  0  0  0
  -13.1860   17.7740   21.2550 C   0  0  0  0  0  0  0  0  0  0  0  0
  -13.0500   16.4500   20.8410 C   0  0  0  0  0  0  0  0  0  0  0  0
  -14.1940   15.6940   20.5000 C   0  0  0  0  0  0  0  0  0  0  0  0
  -14.3990   14.3380   20.0520 C   0  0  0  0  0  0  0  0  0  0  0  0
  -13.4210   13.2720   19.8180 C   0  0  0  0  0  0  0  0  0  0  0  0
  -12.1470   13.6900   19.6050 N   0  0  0  0  0  0  0  0  0  0  0  0
  -11.1990   12.7660   19.3880 C   0  0  0  0  0  0  0  0  0  0  0  0
   -9.9320   13.2720   19.1300 N   0  0  0  0  0  0  0  0  0  0  0  0
   -9.1640   14.3020   19.6880 C   0  0  0  0  0  0  0  0  0  0  0  0
   -9.7050   15.4200   20.3320 C   0  0  0  0  0  0  0  0  0  0  0  0
   -8.8820   16.4010   20.9000 C   0  0  0  0  0  0  0  0  0  0  0  0
   -7.4960   16.2720   20.8470 C   0  0  0  0  0  0  0  0  0  0  0  0
   -6.9420   15.1530   20.2220 C   0  0  0  0  0  0  0  0  0  0  0  0
   -5.1960   14.9360   20.1650 S   0  0  0  0  0  0  0  0  0  0  0  0
   -4.5310   16.3090   21.0690 C   0  0  0  0  0  0  0  0  0  0  0  0
   -4.8870   13.7100   20.8750 O   0  0  0  0  0  0  0  0  0  0  0  0
   -4.7870   15.1070   18.7820 O   0  0  0  0  0  0  0  0  0  0  0  0
   -7.7640   14.1900   19.6480 C   0  0  0  0  0  0  0  0  0  0  0  0
   -7.2280   13.1080   19.0580 F   0  0  0  0  0  0  0  0  0  0  0  0
  -11.4470   11.4480   19.3690 N   0  0  0  0  0  0  0  0  0  0  0  0
  -12.7210   11.0620   19.5780 C   0  0  0  0  0  0  0  0  0  0  0  0
  -13.7530   11.9340   19.8050 C   0  0  0  0  0  0  0  0  0  0  0  0
  -14.9950   11.4650   19.9810 F   0  0  0  0  0  0  0  0  0  0  0  0
  -15.7630   14.1900   19.8910 C   0  0  0  0  0  0  0  0  0  0  0  0
  -16.3680   15.3790   20.1900 N   0  0  0  0  0  0  0  0  0  0  0  0
  -15.4460   16.3210   20.5790 C   0  0  0  0  0  0  0  0  0  0  0  0
  -20.2860   18.8750   20.4910 N   0  0  0  0  0  0  0  0  0  0  0  0
  -21.2660   19.7770   19.8430 C   0  0  0  0  0  0  0  0  0  0  0  0
  -22.7080   19.2120   19.9280 C   0  0  2  0  0  0  0  0  0  0  0  0
  -23.6880   20.0960   19.1610 C   0  0  0  0  0  0  0  0  0  0  0  0
  -23.2000   19.0750   21.3130 N   0  0  0  0  0  0  0  0  0  0  0  0
  -22.1020   18.9690   22.2920 C   0  0  1  0  0  0  0  0  0  0  0  0
  -22.6030   18.2410   23.5410 C   0  0  0  0  0  0  0  0  0  0  0  0
  -20.8270   18.2810   21.7310 C   0  0  0  0  0  0  0  0  0  0  0  0
  2  1  1  6
  2  3  1  0
  3  4  2  0
  3  5  1  0
  5  6  1  0
  6  7  2  0
  7  8  1  0
  8  9  2  0
  9 10  1  0
 10 11  1  0
 11 12  1  0
 12 13  2  0
 13 14  1  0
 14 15  1  0
 15 16  1  0
 16 17  2  0
 17 18  1  0
 18 19  2  0
 19 20  1  0
 20 21  1  0
 21 22  1  0
 21 23  2  0
 21 24  2  0
 20 25  2  0
 25 26  1  0
 14 27  2  0
 27 28  1  0
 28 29  2  0
 29 30  1  0
 11 31  2  0
 31 32  1  0
 32 33  1  0
  2 34  1  0
 34 35  1  0
 35 36  1  0
 36 37  1  6
 36 38  1  0
 38 39  1  0
 39 40  1  1
 39 41  1  0
 33  6  1  0
 41 34  1  0
 33 10  2  0
 29 12  1  0
 25 16  1  0
M  END
$$$$
