FXTPMBKUURJDKQ-UHFFFAOYSA-N_6N7A_m3
     RDKit          3D

 25 27  0  0  0  0  0  0  0  0999 V2000
    6.4380  -26.2080   22.9780 C   0  0  0  0  0  0  0  0  0  0  0  0
    5.1170  -25.9850   22.2900 C   0  0  0  0  0  0  0  0  0  0  0  0
    4.0530  -26.8650   22.5570 C   0  0  0  0  0  0  0  0  0  0  0  0
    2.8130  -26.6980   21.9390 C   0  0  0  0  0  0  0  0  0  0  0  0
    2.6200  -25.6420   21.0570 C   0  0  0  0  0  0  0  0  0  0  0  0
    3.6660  -24.7630   20.7910 C   0  0  0  0  0  0  0  0  0  0  0  0
    3.4210  -23.7320   19.9670 F   0  0  0  0  0  0  0  0  0  0  0  0
    4.9310  -24.9120   21.3890 C   0  0  0  0  0  0  0  0  0  0  0  0
    6.0110  -24.0370   21.1260 N   0  0  0  0  0  0  0  0  0  0  0  0
    6.3610  -22.8060   21.6890 C   0  0  0  0  0  0  0  0  0  0  0  0
    5.2860  -22.0970   22.1060 N   0  0  0  0  0  0  0  0  0  0  0  0
    5.4690  -20.8550   22.5830 C   0  0  0  0  0  0  0  0  0  0  0  0
    4.3950  -20.0720   23.0060 N   0  0  0  0  0  0  0  0  0  0  0  0
    3.6060  -19.2160   22.3300 C   0  0  0  0  0  0  0  0  0  0  0  0
    2.2140  -19.2300   22.1080 C   0  0  0  0  0  0  0  0  0  0  0  0
    1.8050  -18.1850   21.3790 N   0  0  0  0  0  0  0  0  0  0  0  0
    2.9450  -17.5120   21.1340 N   0  0  0  0  0  0  0  0  0  0  0  0
    2.8970  -16.3000   20.3510 C   0  0  0  0  0  0  0  0  0  0  0  0
    4.0520  -18.0900   21.6850 C   0  0  0  0  0  0  0  0  0  0  0  0
    6.6730  -20.2830   22.6920 N   0  0  0  0  0  0  0  0  0  0  0  0
    7.7360  -21.0280   22.3190 C   0  0  0  0  0  0  0  0  0  0  0  0
    7.6470  -22.3150   21.8320 C   0  0  0  0  0  0  0  0  0  0  0  0
    8.9150  -23.0340   21.6080 C   0  0  0  0  0  0  0  0  0  0  0  0
   10.0140  -22.3090   21.2500 N   0  0  0  0  0  0  0  0  0  0  0  0
    8.9650  -24.2580   21.6640 O   0  0  0  0  0  0  0  0  0  0  0  0
  1  2  1  0
  2  3  2  0
  3  4  1  0
  4  5  2  0
  5  6  1  0
  6  7  1  0
  6  8  2  0
  8  9  1  0
  9 10  1  0
 10 11  2  0
 11 12  1  0
 12 13  1  0
 13 14  1  0
 14 15  1  0
 15 16  2  0
 16 17  1  0
 17 18  1  0
 17 19  1  0
 12 20  2  0
 20 21  1  0
 21 22  2  0
 22 23  1  0
 23 24  1  0
 23 25  2  0
  8  2  1  0
 22 10  1  0
 19 14  2  0
M  END
$$$$
