GAHQTUGIHSTVHS-UHFFFAOYSA-N_4BDS_m6
     RDKit          3D

 22 25  0  0  0  0  0  0  0  0999 V2000
  134.9250  110.8390   40.6510 C   0  0  0  0  0  0  0  0  0  0  0  0
  135.5360  111.3170   41.8030 C   0  0  0  0  0  0  0  0  0  0  0  0
  136.8430  111.7910   41.7370 C   0  0  0  0  0  0  0  0  0  0  0  0
  137.5090  111.7630   40.5130 C   0  0  0  0  0  0  0  0  0  0  0  0
  138.9180  112.3100   40.3970 C   0  0  0  0  0  0  0  0  0  0  0  0
  138.9050  113.5310   39.5920 N   0  0  0  0  0  0  0  0  0  0  0  0
  138.6990  114.7330   40.2920 C   0  0  0  0  0  0  0  0  0  0  0  0
  137.5130  115.4680   40.0880 C   0  0  0  0  0  0  0  0  0  0  0  0
  137.3780  116.6880   40.7570 C   0  0  0  0  0  0  0  0  0  0  0  0
  138.3470  117.2120   41.5460 N   0  0  0  0  0  0  0  0  0  0  0  0
  139.4780  116.5180   41.7320 C   0  0  0  0  0  0  0  0  0  0  0  0
  140.4540  117.0640   42.5560 C   0  0  0  0  0  0  0  0  0  0  0  0
  141.6530  116.4010   42.8240 C   0  0  0  0  0  0  0  0  0  0  0  0
  141.8870  115.1550   42.2610 C   0  0  0  0  0  0  0  0  0  0  0  0
  140.9230  114.5910   41.4280 C   0  0  0  0  0  0  0  0  0  0  0  0
  139.7130  115.2640   41.1340 C   0  0  0  0  0  0  0  0  0  0  0  0
  136.1540  117.5510   40.5950 C   0  0  0  0  0  0  0  0  0  0  0  0
  134.9420  116.7860   40.0760 C   0  0  0  0  0  0  0  0  0  0  0  0
  135.3350  115.9680   38.8560 C   0  0  0  0  0  0  0  0  0  0  0  0
  136.3950  114.9320   39.2240 C   0  0  0  0  0  0  0  0  0  0  0  0
  136.9180  111.3140   39.3730 N   0  0  0  0  0  0  0  0  0  0  0  0
  135.6490  110.8600   39.4700 C   0  0  0  0  0  0  0  0  0  0  0  0
  1  2  2  0
  2  3  1  0
  3  4  2  0
  4  5  1  0
  5  6  1  0
  6  7  1  0
  7  8  2  0
  8  9  1  0
  9 10  2  0
 10 11  1  0
 11 12  2  0
 12 13  1  0
 13 14  2  0
 14 15  1  0
 15 16  2  0
  9 17  1  0
 17 18  1  0
 18 19  1  0
 19 20  1  0
  4 21  1  0
 21 22  2  0
 22  1  1  0
 16  7  1  0
 20  8  1  0
 16 11  1  0
M  END
$$$$
