GCIKSSRWRFVXBI-UHFFFAOYSA-N_6N7A_m3
     RDKit          3D

 33 37  0  0  0  0  0  0  0  0999 V2000
    4.7010  -27.9940   22.6850 C   0  0  0  0  0  0  0  0  0  0  0  0
    4.7340  -26.5480   22.3700 C   0  0  0  0  0  0  0  0  0  0  0  0
    4.1140  -25.8070   21.3900 C   0  0  0  0  0  0  0  0  0  0  0  0
    4.5370  -24.4690   21.5920 C   0  0  0  0  0  0  0  0  0  0  0  0
    4.1440  -23.4900   20.7550 N   0  0  0  0  0  0  0  0  0  0  0  0
    4.6330  -22.2050   20.5080 C   0  0  0  0  0  0  0  0  0  0  0  0
    3.8330  -21.1040   20.2770 C   0  0  0  0  0  0  0  0  0  0  0  0
    4.4330  -19.8720   20.0810 C   0  0  0  0  0  0  0  0  0  0  0  0
    3.6990  -18.7090   19.8480 N   0  0  0  0  0  0  0  0  0  0  0  0
    3.9460  -17.9090   18.6360 C   0  0  0  0  0  0  0  0  0  0  0  0
    3.2250  -16.5430   18.6820 C   0  0  0  0  0  0  0  0  0  0  0  0
    1.7970  -16.5760   19.0540 N   0  0  0  0  0  0  0  0  0  0  0  0
    0.9800  -17.1920   18.0120 C   0  0  0  0  0  0  0  0  0  0  0  0
    1.6780  -17.3000   20.3370 C   0  0  0  0  0  0  0  0  0  0  0  0
    2.3240  -18.7050   20.3830 C   0  0  0  0  0  0  0  0  0  0  0  0
    5.7710  -19.7780   20.0990 N   0  0  0  0  0  0  0  0  0  0  0  0
    6.4790  -20.8930   20.3100 C   0  0  0  0  0  0  0  0  0  0  0  0
    8.2470  -20.7360   20.3480 S   0  0  0  0  0  0  0  0  0  0  0  0
    8.6310  -21.9690   21.5720 C   0  0  0  0  0  0  0  0  0  0  0  0
    8.5830  -23.3300   21.2610 C   0  0  0  0  0  0  0  0  0  0  0  0
    8.9130  -24.2930   22.2220 C   0  0  0  0  0  0  0  0  0  0  0  0
    9.2980  -23.9070   23.5080 C   0  0  0  0  0  0  0  0  0  0  0  0
    9.6540  -24.8100   24.5260 N   0  0  0  0  0  0  0  0  0  0  0  0
    8.9700  -25.9360   24.9250 C   0  0  0  0  0  0  0  0  0  0  0  0
    7.9100  -26.3700   24.4990 O   0  0  0  0  0  0  0  0  0  0  0  0
    9.6550  -26.6580   26.0320 C   0  0  0  0  0  0  0  0  0  0  0  0
    9.7190  -28.1690   26.0050 C   0  0  0  0  0  0  0  0  0  0  0  0
   10.9700  -27.3670   25.8010 C   0  0  0  0  0  0  0  0  0  0  0  0
    9.3460  -22.5430   23.8180 C   0  0  0  0  0  0  0  0  0  0  0  0
    9.0200  -21.5810   22.8560 C   0  0  0  0  0  0  0  0  0  0  0  0
    5.9680  -22.1110   20.5190 N   0  0  0  0  0  0  0  0  0  0  0  0
    5.3450  -24.3830   22.6480 N   0  0  0  0  0  0  0  0  0  0  0  0
    5.4540  -25.6440   23.1010 N   0  0  0  0  0  0  0  0  0  0  0  0
  1  2  1  0
  2  3  2  0
  3  4  1  0
  4  5  1  0
  5  6  1  0
  6  7  2  0
  7  8  1  0
  8  9  1  0
  9 10  1  0
 10 11  1  0
 11 12  1  0
 12 13  1  0
 12 14  1  0
 14 15  1  0
  8 16  2  0
 16 17  1  0
 17 18  1  0
 18 19  1  0
 19 20  2  0
 20 21  1  0
 21 22  2  0
 22 23  1  0
 23 24  1  0
 24 25  2  0
 24 26  1  0
 26 27  1  0
 27 28  1  0
 22 29  1  0
 29 30  2  0
 17 31  2  0
  4 32  2  0
 32 33  1  0
 33  2  1  0
 31  6  1  0
 15  9  1  0
 30 19  1  0
 28 26  1  0
M  END
$$$$
