GEWSWDQRMYUYDV-UHFFFAOYSA-N_4EY7_m6
     RDKit          3D

 23 26  0  0  0  0  0  0  0  0999 V2000
  -14.1690  -46.5010   32.1360 O   0  0  0  0  0  0  0  0  0  0  0  0
  -13.6180  -45.5200   31.6380 C   0  0  0  0  0  0  0  0  0  0  0  0
  -13.5250  -44.2580   32.4450 C   0  0  0  0  0  0  0  0  0  0  0  0
  -12.3680  -43.4670   32.4590 C   0  0  0  0  0  0  0  0  0  0  0  0
  -12.3250  -42.3040   33.2330 C   0  0  0  0  0  0  0  0  0  0  0  0
  -13.4280  -41.9340   34.0020 C   0  0  0  0  0  0  0  0  0  0  0  0
  -14.5750  -42.7250   34.0040 C   0  0  0  0  0  0  0  0  0  0  0  0
  -14.6240  -43.8860   33.2330 C   0  0  0  0  0  0  0  0  0  0  0  0
  -13.0310  -45.5040   30.3620 N   0  0  0  0  0  0  0  0  0  0  0  0
  -11.6760  -45.9790   30.1980 C   0  0  0  0  0  0  0  0  0  0  0  0
  -10.8770  -46.2100   31.3440 C   0  0  0  0  0  0  0  0  0  0  0  0
   -9.5620  -46.6740   31.2550 C   0  0  0  0  0  0  0  0  0  0  0  0
   -8.9990  -46.9130   30.0140 C   0  0  0  0  0  0  0  0  0  0  0  0
   -9.7510  -46.6720   28.8680 C   0  0  0  0  0  0  0  0  0  0  0  0
  -11.0760  -46.1990   28.9500 C   0  0  0  0  0  0  0  0  0  0  0  0
  -11.8980  -45.9440   27.4090 S   0  0  0  0  0  0  0  0  0  0  0  0
  -13.2930  -44.9850   27.9240 C   0  0  0  0  0  0  0  0  0  0  0  0
  -14.0160  -44.3660   26.8840 C   0  0  0  0  0  0  0  0  0  0  0  0
  -15.1850  -43.6610   27.1410 C   0  0  0  0  0  0  0  0  0  0  0  0
  -15.6480  -43.5850   28.4440 C   0  0  0  0  0  0  0  0  0  0  0  0
  -17.1090  -42.7390   28.7810 Cl  0  0  0  0  0  0  0  0  0  0  0  0
  -14.9400  -44.1950   29.4830 C   0  0  0  0  0  0  0  0  0  0  0  0
  -13.7310  -44.8910   29.2560 C   0  0  0  0  0  0  0  0  0  0  0  0
  1  2  2  0
  2  3  1  0
  3  4  2  0
  4  5  1  0
  5  6  2  0
  6  7  1  0
  7  8  2  0
  2  9  1  0
  9 10  1  0
 10 11  2  0
 11 12  1  0
 12 13  2  0
 13 14  1  0
 14 15  2  0
 15 16  1  0
 16 17  1  0
 17 18  2  0
 18 19  1  0
 19 20  2  0
 20 21  1  0
 20 22  1  0
 22 23  2  0
  8  3  1  0
 23  9  1  0
 15 10  1  0
 23 17  1  0
M  END
$$$$
