GKGGPNXFKDZMQC-UHFFFAOYSA-N_4BDS_m9
     RDKit          3D

 36 39  0  0  0  0  0  0  0  0999 V2000
  132.9880  113.8710   43.1670 C   0  0  0  0  0  0  0  0  0  0  0  0
  133.6170  114.7170   42.1530 N   0  0  0  0  0  0  0  0  0  0  0  0
  132.6710  115.6610   41.5340 C   0  0  0  0  0  0  0  0  0  0  0  0
  133.2600  116.7930   40.7150 C   0  0  0  0  0  0  0  0  0  0  0  0
  133.2630  118.1020   41.2190 C   0  0  0  0  0  0  0  0  0  0  0  0
  133.7980  119.1520   40.4700 C   0  0  0  0  0  0  0  0  0  0  0  0
  134.3390  118.9050   39.2090 C   0  0  0  0  0  0  0  0  0  0  0  0
  134.3380  117.6090   38.6940 C   0  0  0  0  0  0  0  0  0  0  0  0
  133.7980  116.5590   39.4400 C   0  0  0  0  0  0  0  0  0  0  0  0
  134.8250  115.3820   42.6650 C   0  0  0  0  0  0  0  0  0  0  0  0
  136.1040  114.9200   41.9920 C   0  0  0  0  0  0  0  0  0  0  0  0
  136.2880  113.5740   41.6390 C   0  0  0  0  0  0  0  0  0  0  0  0
  137.4560  113.1540   40.9950 C   0  0  0  0  0  0  0  0  0  0  0  0
  138.4440  114.0860   40.6610 C   0  0  0  0  0  0  0  0  0  0  0  0
  139.7160  113.6900   39.9950 C   0  0  0  0  0  0  0  0  0  0  0  0
  140.7610  114.2730   40.2740 O   0  0  0  0  0  0  0  0  0  0  0  0
  139.7630  112.5890   39.0050 C   0  0  0  0  0  0  0  0  0  0  0  0
  140.4450  111.3990   39.2680 C   0  0  0  0  0  0  0  0  0  0  0  0
  140.4680  110.3900   38.3020 C   0  0  0  0  0  0  0  0  0  0  0  0
  139.8090  110.5550   37.0780 C   0  0  0  0  0  0  0  0  0  0  0  0
  139.9210  109.4930   36.2230 O   0  0  0  0  0  0  0  0  0  0  0  0
  139.0120  109.4480   35.1230 C   0  0  0  0  0  0  0  0  0  0  0  0
  137.8980  108.4510   35.4420 C   0  0  0  0  0  0  0  0  0  0  0  0
  136.5500  109.0920   35.7890 C   0  0  0  0  0  0  0  0  0  0  0  0
  136.0600  108.7540   37.1990 C   0  0  0  0  0  0  0  0  0  0  0  0
  136.0360  110.0030   38.0930 C   0  0  0  0  0  0  0  0  0  0  0  0
  136.8180  109.8290   39.3320 N   0  0  0  0  0  0  0  0  0  0  0  0
  137.5710  108.5620   39.3250 C   0  0  0  0  0  0  0  0  0  0  0  0
  138.3910  108.3840   40.6060 C   0  0  0  0  0  0  0  0  0  0  0  0
  137.5060  108.4640   41.8430 C   0  0  0  0  0  0  0  0  0  0  0  0
  136.6840  109.7460   41.8170 C   0  0  0  0  0  0  0  0  0  0  0  0
  135.9200  109.8930   40.5000 C   0  0  0  0  0  0  0  0  0  0  0  0
  139.1010  111.7330   36.8360 C   0  0  0  0  0  0  0  0  0  0  0  0
  139.0720  112.7460   37.8000 C   0  0  0  0  0  0  0  0  0  0  0  0
  138.2650  115.4320   41.0060 C   0  0  0  0  0  0  0  0  0  0  0  0
  137.1000  115.8460   41.6570 C   0  0  0  0  0  0  0  0  0  0  0  0
  1  2  1  0
  2  3  1  0
  3  4  1  0
  4  5  2  0
  5  6  1  0
  6  7  2  0
  7  8  1  0
  8  9  2  0
  2 10  1  0
 10 11  1  0
 11 12  2  0
 12 13  1  0
 13 14  2  0
 14 15  1  0
 15 16  2  0
 15 17  1  0
 17 18  2  0
 18 19  1  0
 19 20  2  0
 20 21  1  0
 21 22  1  0
 22 23  1  0
 23 24  1  0
 24 25  1  0
 25 26  1  0
 26 27  1  0
 27 28  1  0
 28 29  1  0
 29 30  1  0
 30 31  1  0
 31 32  1  0
 20 33  1  0
 33 34  2  0
 14 35  1  0
 35 36  2  0
  9  4  1  0
 36 11  1  0
 34 17  1  0
 32 27  1  0
M  END
$$$$
