GPSZYOIFQZPWEJ-UHFFFAOYSA-N_6N7A_m9
     RDKit          3D

 26 29  0  0  0  0  0  0  0  0999 V2000
    2.1320  -18.9050   21.8700 C   0  0  0  0  0  0  0  0  0  0  0  0
    2.6610  -18.4920   20.5440 C   0  0  0  0  0  0  0  0  0  0  0  0
    1.7430  -18.2030   19.5440 N   0  0  0  0  0  0  0  0  0  0  0  0
    2.3600  -17.8200   18.4560 C   0  0  0  0  0  0  0  0  0  0  0  0
    1.7170  -17.4690   17.3390 N   0  0  0  0  0  0  0  0  0  0  0  0
    4.0690  -17.7980   18.5470 S   0  0  0  0  0  0  0  0  0  0  0  0
    3.9910  -18.3480   20.1740 C   0  0  0  0  0  0  0  0  0  0  0  0
    5.2210  -18.5930   20.9220 C   0  0  0  0  0  0  0  0  0  0  0  0
    6.1860  -17.6240   21.0630 C   0  0  0  0  0  0  0  0  0  0  0  0
    7.2890  -18.0010   21.7830 C   0  0  0  0  0  0  0  0  0  0  0  0
    7.4410  -19.2250   22.3210 N   0  0  0  0  0  0  0  0  0  0  0  0
    6.4470  -20.1120   22.1360 C   0  0  0  0  0  0  0  0  0  0  0  0
    6.6600  -21.3570   22.7180 N   0  0  0  0  0  0  0  0  0  0  0  0
    6.1130  -22.6280   22.5210 C   0  0  0  0  0  0  0  0  0  0  0  0
    5.3490  -22.9890   21.4130 C   0  0  0  0  0  0  0  0  0  0  0  0
    4.8290  -24.2870   21.2750 C   0  0  0  0  0  0  0  0  0  0  0  0
    5.0400  -25.2780   22.2410 C   0  0  0  0  0  0  0  0  0  0  0  0
    4.5390  -26.5700   22.1190 N   0  0  0  0  0  0  0  0  0  0  0  0
    5.1800  -27.6420   22.9050 C   0  0  0  0  0  0  0  0  0  0  0  0
    4.8340  -29.0200   22.3180 C   0  0  0  0  0  0  0  0  0  0  0  0
    3.4160  -29.2080   22.1960 O   0  0  0  0  0  0  0  0  0  0  0  0
    2.8680  -28.2090   21.3220 C   0  0  0  0  0  0  0  0  0  0  0  0
    3.1050  -26.7900   21.8620 C   0  0  0  0  0  0  0  0  0  0  0  0
    5.8170  -24.9100   23.3450 C   0  0  0  0  0  0  0  0  0  0  0  0
    6.3410  -23.6160   23.4860 C   0  0  0  0  0  0  0  0  0  0  0  0
    5.3360  -19.8290   21.4470 N   0  0  0  0  0  0  0  0  0  0  0  0
  1  2  1  0
  2  3  1  0
  3  4  2  0
  4  5  1  0
  4  6  1  0
  6  7  1  0
  7  8  1  0
  8  9  2  0
  9 10  1  0
 10 11  2  0
 11 12  1  0
 12 13  1  0
 13 14  1  0
 14 15  2  0
 15 16  1  0
 16 17  2  0
 17 18  1  0
 18 19  1  0
 19 20  1  0
 20 21  1  0
 21 22  1  0
 22 23  1  0
 17 24  1  0
 24 25  2  0
 12 26  2  0
  7  2  2  0
 26  8  1  0
 25 14  1  0
 23 18  1  0
M  END
$$$$
