GUFHDBFHNDUDJA-GXJYFLSQSA-N_6LXA_m2
     RDKit          3D

 37 41  0  0  0  0  0  0  0  0999 V2000
    6.8810   10.2560   -3.3430 C   0  0  0  0  0  0  0  0  0  0  0  0
    7.4120   10.1160   -4.7630 C   0  0  0  0  0  0  0  0  0  0  0  0
    6.3290    9.6880   -5.7520 C   0  0  0  0  0  0  0  0  0  0  0  0
    6.3810    8.2710   -5.9140 O   0  0  0  0  0  0  0  0  0  0  0  0
    5.4180    7.5270   -5.2800 C   0  0  0  0  0  0  0  0  0  0  0  0
    4.2640    8.0580   -4.6900 C   0  0  0  0  0  0  0  0  0  0  0  0
    3.3640    7.2320   -4.0120 C   0  0  0  0  0  0  0  0  0  0  0  0
    3.5830    5.8570   -3.9500 C   0  0  0  0  0  0  0  0  0  0  0  0
    2.7240    4.9520   -3.0950 C   0  0  0  0  0  0  0  0  0  0  0  0
    2.9560    5.1060   -1.5720 C   0  0  2  0  0  0  0  0  0  0  0  0
    2.6090    6.4950   -1.0040 C   0  0  0  0  0  0  0  0  0  0  0  0
    2.4580    6.5080    0.5110 C   0  0  0  0  0  0  0  0  0  0  0  0
    4.3700    4.6680   -1.2260 C   0  0  0  0  0  0  0  0  0  0  0  0
    5.3350    5.4210   -1.1860 O   0  0  0  0  0  0  0  0  0  0  0  0
    4.4710    3.3800   -0.8440 O   0  0  0  0  0  0  0  0  0  0  0  0
    4.6910    5.3210   -4.6200 C   0  0  0  0  0  0  0  0  0  0  0  0
    5.6500    6.1390   -5.2360 C   0  0  0  0  0  0  0  0  0  0  0  0
    6.9630    5.5760   -5.7360 C   0  0  0  0  0  0  0  0  0  0  0  0
    7.5610    6.2840   -6.8560 N   0  0  0  0  0  0  0  0  0  0  0  0
    8.8790    6.1180   -7.2330 C   0  0  0  0  0  0  0  0  0  0  0  0
    9.6290    5.2910   -6.7210 O   0  0  0  0  0  0  0  0  0  0  0  0
    9.3620    6.9520   -8.3740 C   0  0  0  0  0  0  0  0  0  0  0  0
    9.9260    6.3050   -9.4750 C   0  0  0  0  0  0  0  0  0  0  0  0
   10.3800    7.0380  -10.5780 C   0  0  0  0  0  0  0  0  0  0  0  0
   10.2800    8.4400  -10.6220 C   0  0  0  0  0  0  0  0  0  0  0  0
   10.7720    9.2120  -11.8590 C   0  0  2  0  0  0  0  0  0  0  0  0
   11.8770    8.3910  -12.5830 C   0  0  0  0  0  0  0  0  0  0  0  0
   12.3620    9.1130  -13.8530 C   0  0  1  0  0  0  0  0  0  0  0  0
   11.1760    9.3120  -14.8100 C   0  0  0  0  0  0  0  0  0  0  0  0
   10.0900   10.1660  -14.1340 C   0  0  2  0  0  0  0  0  0  0  0  0
   10.6790   11.5300  -13.7530 C   0  0  0  0  0  0  0  0  0  0  0  0
   11.8600   11.3370  -12.7930 C   0  0  2  0  0  0  0  0  0  0  0  0
   12.9410   10.4840  -13.4750 C   0  0  0  0  0  0  0  0  0  0  0  0
   11.3750   10.6120  -11.5270 C   0  0  0  0  0  0  0  0  0  0  0  0
    9.6010    9.4500  -12.8630 C   0  0  0  0  0  0  0  0  0  0  0  0
    9.7370    9.0770   -9.4930 C   0  0  0  0  0  0  0  0  0  0  0  0
    9.2890    8.3480   -8.3810 C   0  0  0  0  0  0  0  0  0  0  0  0
  1  2  1  0
  2  3  1  0
  3  4  1  0
  4  5  1  0
  5  6  2  0
  6  7  1  0
  7  8  2  0
  8  9  1  0
 10  9  1  6
 10 11  1  0
 11 12  1  0
 10 13  1  0
 13 14  2  0
 13 15  1  0
  8 16  1  0
 16 17  2  0
 17 18  1  0
 18 19  1  0
 19 20  1  0
 20 21  2  0
 20 22  1  0
 22 23  2  0
 23 24  1  0
 24 25  2  0
 26 25  1  6
 26 27  1  0
 28 27  1  6
 28 29  1  0
 30 29  1  6
 30 31  1  0
 32 31  1  1
 32 33  1  0
 32 34  1  0
 30 35  1  0
 25 36  1  0
 36 37  2  0
 17  5  1  0
 37 22  1  0
 34 26  1  0
 35 26  1  0
 33 28  1  0
M  END
$$$$
