GUFHDBFHNDUDJA-GXJYFLSQSA-N_5U3Q_m9
     RDKit          3D

 37 41  0  0  0  0  0  0  0  0999 V2000
   38.2010  -34.6050  100.5900 C   0  0  0  0  0  0  0  0  0  0  0  0
   37.9070  -35.9770  101.1810 C   0  0  0  0  0  0  0  0  0  0  0  0
   36.4550  -36.1180  101.6350 C   0  0  0  0  0  0  0  0  0  0  0  0
   36.3270  -37.3030  102.4200 O   0  0  0  0  0  0  0  0  0  0  0  0
   36.1720  -37.1500  103.7740 C   0  0  0  0  0  0  0  0  0  0  0  0
   35.5070  -36.0770  104.3810 C   0  0  0  0  0  0  0  0  0  0  0  0
   35.4470  -35.9690  105.7730 C   0  0  0  0  0  0  0  0  0  0  0  0
   36.0160  -36.9550  106.5780 C   0  0  0  0  0  0  0  0  0  0  0  0
   36.1130  -36.7980  108.0790 C   0  0  0  0  0  0  0  0  0  0  0  0
   36.4610  -38.1040  108.8350 C   0  0  2  0  0  0  0  0  0  0  0  0
   35.5270  -38.4350  110.0130 C   0  0  0  0  0  0  0  0  0  0  0  0
   35.3040  -39.9290  110.2060 C   0  0  0  0  0  0  0  0  0  0  0  0
   37.9270  -38.0850  109.2360 C   0  0  0  0  0  0  0  0  0  0  0  0
   38.4440  -37.2060  109.9140 O   0  0  0  0  0  0  0  0  0  0  0  0
   38.6110  -39.1890  108.8810 O   0  0  0  0  0  0  0  0  0  0  0  0
   36.5980  -38.0710  105.9650 C   0  0  0  0  0  0  0  0  0  0  0  0
   36.7420  -38.1610  104.5720 C   0  0  0  0  0  0  0  0  0  0  0  0
   37.5890  -39.2400  103.9330 C   0  0  0  0  0  0  0  0  0  0  0  0
   38.8960  -39.4470  104.5370 N   0  0  0  0  0  0  0  0  0  0  0  0
   40.0750  -39.0810  103.9190 C   0  0  0  0  0  0  0  0  0  0  0  0
   40.1190  -38.4630  102.8580 O   0  0  0  0  0  0  0  0  0  0  0  0
   41.3410  -39.4040  104.6420 C   0  0  0  0  0  0  0  0  0  0  0  0
   41.5420  -38.8470  105.9070 C   0  0  0  0  0  0  0  0  0  0  0  0
   42.7040  -39.1290  106.6350 C   0  0  0  0  0  0  0  0  0  0  0  0
   43.7010  -39.9830  106.1290 C   0  0  0  0  0  0  0  0  0  0  0  0
   44.9560  -40.2860  106.9650 C   0  0  2  0  0  0  0  0  0  0  0  0
   45.7080  -38.9620  107.2800 C   0  0  0  0  0  0  0  0  0  0  0  0
   46.9480  -39.2210  108.1540 C   0  0  1  0  0  0  0  0  0  0  0  0
   46.5110  -39.8760  109.4740 C   0  0  0  0  0  0  0  0  0  0  0  0
   45.8090  -41.2160  109.1920 C   0  0  2  0  0  0  0  0  0  0  0  0
   46.7720  -42.1490  108.4480 C   0  0  0  0  0  0  0  0  0  0  0  0
   47.2070  -41.5020  107.1270 C   0  0  2  0  0  0  0  0  0  0  0  0
   47.9080  -40.1660  107.4160 C   0  0  0  0  0  0  0  0  0  0  0  0
   45.9680  -41.2380  106.2560 C   0  0  0  0  0  0  0  0  0  0  0  0
   44.5690  -40.9620  108.3180 C   0  0  0  0  0  0  0  0  0  0  0  0
   43.4960  -40.5100  104.8430 C   0  0  0  0  0  0  0  0  0  0  0  0
   42.3380  -40.2230  104.1040 C   0  0  0  0  0  0  0  0  0  0  0  0
  1  2  1  0
  2  3  1  0
  3  4  1  0
  4  5  1  0
  5  6  2  0
  6  7  1  0
  7  8  2  0
  8  9  1  0
 10  9  1  1
 10 11  1  0
 11 12  1  0
 10 13  1  0
 13 14  2  0
 13 15  1  0
  8 16  1  0
 16 17  2  0
 17 18  1  0
 18 19  1  0
 19 20  1  0
 20 21  2  0
 20 22  1  0
 22 23  2  0
 23 24  1  0
 24 25  2  0
 26 25  1  1
 26 27  1  0
 28 27  1  1
 28 29  1  0
 30 29  1  1
 30 31  1  0
 32 31  1  6
 32 33  1  0
 32 34  1  0
 30 35  1  0
 25 36  1  0
 36 37  2  0
 17  5  1  0
 37 22  1  0
 34 26  1  0
 35 26  1  0
 33 28  1  0
M  END
$$$$
