GUFHDBFHNDUDJA-GXJYFLSQSA-N_6LXA_m6
     RDKit          3D

 37 41  0  0  0  0  0  0  0  0999 V2000
   13.4880    7.7990  -13.1680 C   0  0  0  0  0  0  0  0  0  0  0  0
   12.5360    6.8420  -12.4650 C   0  0  0  0  0  0  0  0  0  0  0  0
   11.0820    7.0500  -12.8870 C   0  0  0  0  0  0  0  0  0  0  0  0
   10.2780    7.2120  -11.7190 O   0  0  0  0  0  0  0  0  0  0  0  0
   10.4360    8.3690  -10.9990 C   0  0  0  0  0  0  0  0  0  0  0  0
   10.7120    9.6230  -11.5610 C   0  0  0  0  0  0  0  0  0  0  0  0
   10.9160   10.7400  -10.7470 C   0  0  0  0  0  0  0  0  0  0  0  0
   10.8070   10.6290   -9.3620 C   0  0  0  0  0  0  0  0  0  0  0  0
   11.1750   11.7700   -8.4410 C   0  0  0  0  0  0  0  0  0  0  0  0
   10.0670   12.1560   -7.4310 C   0  0  2  0  0  0  0  0  0  0  0  0
    9.5880   13.6170   -7.5270 C   0  0  0  0  0  0  0  0  0  0  0  0
    9.5070   14.1340   -8.9570 C   0  0  0  0  0  0  0  0  0  0  0  0
   10.5020   11.7720   -6.0260 C   0  0  0  0  0  0  0  0  0  0  0  0
   10.7180   10.6240   -5.6610 O   0  0  0  0  0  0  0  0  0  0  0  0
   10.7510   12.8220   -5.2190 O   0  0  0  0  0  0  0  0  0  0  0  0
   10.4400    9.3930   -8.8130 C   0  0  0  0  0  0  0  0  0  0  0  0
   10.3100    8.2410   -9.6020 C   0  0  0  0  0  0  0  0  0  0  0  0
   10.1630    6.8700   -8.9790 C   0  0  0  0  0  0  0  0  0  0  0  0
    9.1640    6.7640   -7.9280 N   0  0  0  0  0  0  0  0  0  0  0  0
    8.6220    5.5610   -7.5260 C   0  0  0  0  0  0  0  0  0  0  0  0
    9.0040    4.4720   -7.9470 O   0  0  0  0  0  0  0  0  0  0  0  0
    7.5700    5.6180   -6.4670 C   0  0  0  0  0  0  0  0  0  0  0  0
    7.6300    4.6940   -5.4210 C   0  0  0  0  0  0  0  0  0  0  0  0
    6.6790    4.7140   -4.3950 C   0  0  0  0  0  0  0  0  0  0  0  0
    5.6390    5.6610   -4.3730 C   0  0  0  0  0  0  0  0  0  0  0  0
    4.6220    5.6660   -3.2190 C   0  0  2  0  0  0  0  0  0  0  0  0
    5.3220    5.2230   -1.9020 C   0  0  0  0  0  0  0  0  0  0  0  0
    4.3440    5.2590   -0.7140 C   0  0  1  0  0  0  0  0  0  0  0  0
    3.8060    6.6880   -0.5410 C   0  0  0  0  0  0  0  0  0  0  0  0
    3.0630    7.1300   -1.8140 C   0  0  2  0  0  0  0  0  0  0  0  0
    1.8980    6.1690   -2.0820 C   0  0  0  0  0  0  0  0  0  0  0  0
    2.4300    4.7420   -2.2620 C   0  0  2  0  0  0  0  0  0  0  0  0
    3.1700    4.3070   -0.9870 C   0  0  0  0  0  0  0  0  0  0  0  0
    3.4110    4.7090   -3.4450 C   0  0  0  0  0  0  0  0  0  0  0  0
    4.0350    7.0960   -3.0050 C   0  0  0  0  0  0  0  0  0  0  0  0
    5.5760    6.5640   -5.4480 C   0  0  0  0  0  0  0  0  0  0  0  0
    6.5210    6.5420   -6.4850 C   0  0  0  0  0  0  0  0  0  0  0  0
  1  2  1  0
  2  3  1  0
  3  4  1  0
  4  5  1  0
  5  6  2  0
  6  7  1  0
  7  8  2  0
  8  9  1  0
 10  9  1  6
 10 11  1  0
 11 12  1  0
 10 13  1  0
 13 14  2  0
 13 15  1  0
  8 16  1  0
 16 17  2  0
 17 18  1  0
 18 19  1  0
 19 20  1  0
 20 21  2  0
 20 22  1  0
 22 23  2  0
 23 24  1  0
 24 25  2  0
 26 25  1  1
 26 27  1  0
 28 27  1  1
 28 29  1  0
 30 29  1  6
 30 31  1  0
 32 31  1  6
 32 33  1  0
 32 34  1  0
 30 35  1  0
 25 36  1  0
 36 37  2  0
 17  5  1  0
 37 22  1  0
 34 26  1  0
 35 26  1  0
 33 28  1  0
M  END
$$$$
