HASPOWFDQOETTJ-UHFFFAOYSA-N_4EY7_m1
     RDKit          3D

 28 31  0  0  0  0  0  0  0  0999 V2000
  -21.2790  -41.0170   26.6270 C   0  0  0  0  0  0  0  0  0  0  0  0
  -20.7880  -41.8350   25.5750 O   0  0  0  0  0  0  0  0  0  0  0  0
  -19.4450  -42.1290   25.5650 C   0  0  0  0  0  0  0  0  0  0  0  0
  -18.6390  -42.1630   26.7140 C   0  0  0  0  0  0  0  0  0  0  0  0
  -17.2950  -42.4740   26.5790 C   0  0  0  0  0  0  0  0  0  0  0  0
  -16.7710  -42.7380   25.3240 C   0  0  0  0  0  0  0  0  0  0  0  0
  -17.5280  -42.7120   24.1670 C   0  0  0  0  0  0  0  0  0  0  0  0
  -18.8860  -42.4040   24.2860 C   0  0  0  0  0  0  0  0  0  0  0  0
  -19.7580  -42.3420   23.2260 O   0  0  0  0  0  0  0  0  0  0  0  0
  -19.5260  -41.3450   22.2410 C   0  0  0  0  0  0  0  0  0  0  0  0
  -15.3530  -43.0330   25.4660 C   0  0  0  0  0  0  0  0  0  0  0  0
  -14.6180  -43.2510   24.5190 O   0  0  0  0  0  0  0  0  0  0  0  0
  -14.9690  -43.0200   26.9370 C   0  0  2  0  0  0  0  0  0  0  0  0
  -14.5400  -44.4050   27.4430 C   0  0  0  0  0  0  0  0  0  0  0  0
  -13.0760  -44.8120   27.1480 C   0  0  0  0  0  0  0  0  0  0  0  0
  -12.7870  -46.2260   27.6840 C   0  0  0  0  0  0  0  0  0  0  0  0
  -12.6510  -46.2630   29.2110 C   0  0  0  0  0  0  0  0  0  0  0  0
  -11.6360  -45.3080   29.6700 N   0  0  0  0  0  0  0  0  0  0  0  0
  -11.3710  -45.4290   31.1170 C   0  0  0  0  0  0  0  0  0  0  0  0
  -10.0450  -44.8910   31.6320 C   0  0  0  0  0  0  0  0  0  0  0  0
   -8.8690  -45.6130   31.4300 C   0  0  0  0  0  0  0  0  0  0  0  0
   -7.6670  -45.0970   31.9090 C   0  0  0  0  0  0  0  0  0  0  0  0
   -7.6680  -43.8780   32.5750 C   0  0  0  0  0  0  0  0  0  0  0  0
   -8.8760  -43.2230   32.7360 C   0  0  0  0  0  0  0  0  0  0  0  0
  -10.0560  -43.6980   32.2810 N   0  0  0  0  0  0  0  0  0  0  0  0
  -11.9290  -43.9370   29.2480 C   0  0  0  0  0  0  0  0  0  0  0  0
  -12.0260  -43.8500   27.7230 C   0  0  0  0  0  0  0  0  0  0  0  0
  -16.2590  -42.5390   27.6560 C   0  0  0  0  0  0  0  0  0  0  0  0
  1  2  1  0
  2  3  1  0
  3  4  2  0
  4  5  1  0
  5  6  2  0
  6  7  1  0
  7  8  2  0
  8  9  1  0
  9 10  1  0
  6 11  1  0
 11 12  2  0
 11 13  1  0
 13 14  1  1
 14 15  1  0
 15 16  1  0
 16 17  1  0
 17 18  1  0
 18 19  1  0
 19 20  1  0
 20 21  2  0
 21 22  1  0
 22 23  2  0
 23 24  1  0
 24 25  2  0
 18 26  1  0
 26 27  1  0
 13 28  1  0
  8  3  1  0
 27 15  1  0
 28  5  1  0
 25 20  1  0
M  END
$$$$
