HBKNDUAKMHVGNM-SFHVURJKSA-N_5U3Q_m7
     RDKit          3D

 31 34  0  0  0  0  0  0  0  0999 V2000
   35.5190  -36.8460  107.7300 C   0  0  0  0  0  0  0  0  0  0  0  0
   35.6490  -38.1030  108.3810 O   0  0  0  0  0  0  0  0  0  0  0  0
   36.8650  -38.2560  108.9560 C   0  0  0  0  0  0  0  0  0  0  0  0
   36.9890  -38.1360  110.3200 C   0  0  0  0  0  0  0  0  0  0  0  0
   38.6180  -38.3740  110.7770 S   0  0  0  0  0  0  0  0  0  0  0  0
   39.0490  -38.6200  109.1230 C   0  0  0  0  0  0  0  0  0  0  0  0
   40.4390  -38.9070  108.7040 C   0  0  0  0  0  0  0  0  0  0  0  0
   40.8080  -39.2120  107.3870 C   0  0  0  0  0  0  0  0  0  0  0  0
   42.1440  -39.4740  107.0560 C   0  0  0  0  0  0  0  0  0  0  0  0
   43.1430  -39.4390  108.0290 C   0  0  0  0  0  0  0  0  0  0  0  0
   44.4000  -39.7140  107.5690 O   0  0  0  0  0  0  0  0  0  0  0  0
   44.8500  -41.0640  107.6730 C   0  0  0  0  0  0  0  0  0  0  0  0
   45.9960  -41.2780  106.6900 C   0  0  0  0  0  0  0  0  0  0  0  0
   45.6510  -42.3130  105.6220 C   0  0  0  0  0  0  0  0  0  0  0  0
   44.2630  -42.1690  105.3120 O   0  0  0  0  0  0  0  0  0  0  0  0
   43.9510  -41.7210  104.0550 C   0  0  0  0  0  0  0  0  0  0  0  0
   44.5680  -42.4370  103.0150 C   0  0  0  0  0  0  0  0  0  0  0  0
   44.3460  -42.1080  101.6740 C   0  0  0  0  0  0  0  0  0  0  0  0
   43.5100  -41.0430  101.3870 C   0  0  0  0  0  0  0  0  0  0  0  0
   42.8920  -40.3300  102.4200 C   0  0  0  0  0  0  0  0  0  0  0  0
   43.0960  -40.6590  103.7540 C   0  0  0  0  0  0  0  0  0  0  0  0
   41.9960  -39.2620  101.8750 C   0  0  0  0  0  0  0  0  0  0  0  0
   42.5460  -39.1190  100.4510 C   0  0  0  0  0  0  0  0  0  0  0  0
   43.0770  -40.5140  100.0420 C   0  0  1  0  0  0  0  0  0  0  0  0
   44.1920  -40.4430   99.0000 C   0  0  0  0  0  0  0  0  0  0  0  0
   44.0110  -41.4680   97.9160 C   0  0  0  0  0  0  0  0  0  0  0  0
   44.7780  -42.3590   97.5980 O   0  0  0  0  0  0  0  0  0  0  0  0
   42.8500  -41.2980   97.2530 O   0  0  0  0  0  0  0  0  0  0  0  0
   42.7950  -39.1360  109.3420 C   0  0  0  0  0  0  0  0  0  0  0  0
   41.4580  -38.8750  109.6720 C   0  0  0  0  0  0  0  0  0  0  0  0
   38.0350  -38.5290  108.2800 N   0  0  0  0  0  0  0  0  0  0  0  0
  1  2  1  0
  2  3  1  0
  3  4  2  0
  4  5  1  0
  5  6  1  0
  6  7  1  0
  7  8  2  0
  8  9  1  0
  9 10  2  0
 10 11  1  0
 11 12  1  0
 12 13  1  0
 13 14  1  0
 14 15  1  0
 15 16  1  0
 16 17  2  0
 17 18  1  0
 18 19  2  0
 19 20  1  0
 20 21  2  0
 20 22  1  0
 22 23  1  0
 23 24  1  0
 24 25  1  6
 25 26  1  0
 26 27  2  0
 26 28  1  0
 10 29  1  0
 29 30  2  0
  6 31  2  0
 31  3  1  0
 30  7  1  0
 21 16  1  0
 24 19  1  0
M  END
$$$$
