HBZPGFLLAMADHT-UHFFFAOYSA-N_4JT6_m6
     RDKit          3D

 30 35  0  0  0  0  0  0  0  0999 V2000
   46.7690   -5.3910  -49.9660 O   0  0  0  0  0  0  0  0  0  0  0  0
   46.0450   -4.4210  -50.1490 C   0  0  0  0  0  0  0  0  0  0  0  0
   46.1760   -3.1740  -49.5680 N   0  0  0  0  0  0  0  0  0  0  0  0
   47.1640   -2.7480  -48.6570 C   0  0  0  0  0  0  0  0  0  0  0  0
   48.2020   -1.8790  -48.9780 C   0  0  0  0  0  0  0  0  0  0  0  0
   49.1460   -1.5060  -48.0090 C   0  0  0  0  0  0  0  0  0  0  0  0
   49.0850   -1.9860  -46.6880 C   0  0  0  0  0  0  0  0  0  0  0  0
   50.0830   -1.5910  -45.6680 C   0  0  0  0  0  0  0  0  0  0  0  0
   50.1180   -2.3130  -44.5330 N   0  0  0  0  0  0  0  0  0  0  0  0
   51.0220   -2.0320  -43.5610 C   0  0  0  0  0  0  0  0  0  0  0  0
   51.0310   -2.8140  -42.4120 N   0  0  0  0  0  0  0  0  0  0  0  0
   51.4580   -4.2200  -42.5470 C   0  0  0  0  0  0  0  0  0  0  0  0
   51.5320   -4.8980  -41.1560 C   0  0  1  0  0  0  0  0  0  0  0  0
   52.4360   -4.1440  -40.1860 C   0  0  0  0  0  0  0  0  0  0  0  0
   51.5050   -3.1360  -39.5240 C   0  0  0  0  0  0  0  0  0  0  0  0
   50.1480   -3.4110  -40.1690 C   0  0  1  0  0  0  0  0  0  0  0  0
   49.9260   -2.5870  -41.4600 C   0  0  0  0  0  0  0  0  0  0  0  0
   50.2310   -4.8110  -40.5270 O   0  0  0  0  0  0  0  0  0  0  0  0
   51.8570   -0.9220  -43.7790 C   0  0  0  0  0  0  0  0  0  0  0  0
   53.0370   -0.1800  -42.7580 S   0  0  0  0  0  0  0  0  0  0  0  0
   53.4260    1.0050  -43.9200 C   0  0  0  0  0  0  0  0  0  0  0  0
   52.6650    0.8720  -45.0570 C   0  0  0  0  0  0  0  0  0  0  0  0
   51.7520   -0.2220  -44.9770 C   0  0  0  0  0  0  0  0  0  0  0  0
   50.8750   -0.5510  -45.9510 N   0  0  0  0  0  0  0  0  0  0  0  0
   48.0290   -2.8620  -46.3850 C   0  0  0  0  0  0  0  0  0  0  0  0
   47.0840   -3.2380  -47.3500 C   0  0  0  0  0  0  0  0  0  0  0  0
   44.9540   -4.4620  -51.0030 N   0  0  0  0  0  0  0  0  0  0  0  0
   44.5900   -5.6440  -51.7170 C   0  0  0  0  0  0  0  0  0  0  0  0
   43.3700   -5.6660  -52.5970 C   0  0  0  0  0  0  0  0  0  0  0  0
   43.3800   -6.4380  -51.3100 C   0  0  0  0  0  0  0  0  0  0  0  0
  1  2  2  0
  2  3  1  0
  3  4  1  0
  4  5  2  0
  5  6  1  0
  6  7  2  0
  7  8  1  0
  8  9  2  0
  9 10  1  0
 10 11  1  0
 11 12  1  0
 13 12  1  6
 13 14  1  0
 14 15  1  0
 16 15  1  6
 16 17  1  0
 16 18  1  0
 10 19  2  0
 19 20  1  0
 20 21  1  0
 21 22  2  0
 22 23  1  0
 23 24  2  0
  7 25  1  0
 25 26  2  0
  2 27  1  0
 27 28  1  0
 28 29  1  0
 29 30  1  0
 26  4  1  0
 30 28  1  0
 24  8  1  0
 17 11  1  0
 23 19  1  0
 18 13  1  0
M  END
$$$$
