HCSJCPSQGSDDFT-UHFFFAOYSA-N_5U3Q_m6
     RDKit          3D

 36 38  0  0  0  0  0  0  0  0999 V2000
   48.0620  -34.0210  109.5960 C   0  0  0  0  0  0  0  0  0  0  0  0
   48.9970  -34.1280  108.3800 C   0  0  0  0  0  0  0  0  0  0  0  0
   48.1030  -34.1950  107.1260 C   0  0  0  0  0  0  0  0  0  0  0  0
   49.6920  -35.3770  108.4000 O   0  0  0  0  0  0  0  0  0  0  0  0
   49.0630  -36.5740  108.2280 C   0  0  0  0  0  0  0  0  0  0  0  0
   47.7690  -36.9130  108.6140 C   0  0  0  0  0  0  0  0  0  0  0  0
   47.2690  -38.1980  108.3620 C   0  0  0  0  0  0  0  0  0  0  0  0
   48.0570  -39.1630  107.7240 C   0  0  0  0  0  0  0  0  0  0  0  0
   47.5010  -40.5280  107.4250 C   0  0  0  0  0  0  0  0  0  0  0  0
   46.3420  -40.4270  106.5730 N   0  0  0  0  0  0  0  0  0  0  0  0
   45.1620  -41.0610  106.8880 C   0  0  0  0  0  0  0  0  0  0  0  0
   45.0560  -41.7370  107.9070 O   0  0  0  0  0  0  0  0  0  0  0  0
   44.0690  -40.8760  105.9510 C   0  0  0  0  0  0  0  0  0  0  0  0
   42.7740  -39.7920  106.2420 S   0  0  0  0  0  0  0  0  0  0  0  0
   42.0460  -40.2130  104.7430 C   0  0  0  0  0  0  0  0  0  0  0  0
   40.7700  -39.6200  104.2870 C   0  0  0  0  0  0  0  0  0  0  0  0
   40.6020  -39.0030  103.0370 C   0  0  0  0  0  0  0  0  0  0  0  0
   39.3670  -38.4580  102.6600 C   0  0  0  0  0  0  0  0  0  0  0  0
   38.2660  -38.5100  103.5260 C   0  0  0  0  0  0  0  0  0  0  0  0
   36.9300  -37.9430  103.1130 C   0  0  0  0  0  0  0  0  0  0  0  0
   35.9560  -38.8900  103.0110 F   0  0  0  0  0  0  0  0  0  0  0  0
   36.4630  -37.0200  103.9970 F   0  0  0  0  0  0  0  0  0  0  0  0
   36.9670  -37.3180  101.9020 F   0  0  0  0  0  0  0  0  0  0  0  0
   38.4210  -39.1340  104.7680 C   0  0  0  0  0  0  0  0  0  0  0  0
   39.6550  -39.6790  105.1420 C   0  0  0  0  0  0  0  0  0  0  0  0
   42.7210  -41.1130  104.0560 N   0  0  0  0  0  0  0  0  0  0  0  0
   43.8870  -41.5070  104.7280 C   0  0  0  0  0  0  0  0  0  0  0  0
   44.8080  -42.5300  104.1160 C   0  0  0  0  0  0  0  0  0  0  0  0
   46.0640  -42.0470  103.9370 F   0  0  0  0  0  0  0  0  0  0  0  0
   44.9370  -43.6360  104.9000 F   0  0  0  0  0  0  0  0  0  0  0  0
   44.3570  -42.9710  102.9130 F   0  0  0  0  0  0  0  0  0  0  0  0
   49.3500  -38.8150  107.3230 C   0  0  0  0  0  0  0  0  0  0  0  0
   49.8450  -37.5340  107.5790 C   0  0  0  0  0  0  0  0  0  0  0  0
   49.8570  -32.8600  108.2180 C   0  0  0  0  0  0  0  0  0  0  0  0
   50.3620  -32.2040  109.1170 O   0  0  0  0  0  0  0  0  0  0  0  0
   50.0400  -32.4910  106.9320 O   0  0  0  0  0  0  0  0  0  0  0  0
  1  2  1  0
  2  3  1  0
  2  4  1  0
  4  5  1  0
  5  6  2  0
  6  7  1  0
  7  8  2  0
  8  9  1  0
  9 10  1  0
 10 11  1  0
 11 12  2  0
 11 13  1  0
 13 14  1  0
 14 15  1  0
 15 16  1  0
 16 17  2  0
 17 18  1  0
 18 19  2  0
 19 20  1  0
 20 21  1  0
 20 22  1  0
 20 23  1  0
 19 24  1  0
 24 25  2  0
 15 26  2  0
 26 27  1  0
 27 28  1  0
 28 29  1  0
 28 30  1  0
 28 31  1  0
  8 32  1  0
 32 33  2  0
  2 34  1  0
 34 35  2  0
 34 36  1  0
 33  5  1  0
 27 13  2  0
 25 16  1  0
M  END
$$$$
