HFUMKLLYTNCQPV-UHFFFAOYSA-N_6N7A_m3
     RDKit          3D

 31 35  0  0  0  0  0  0  0  0999 V2000
   10.5430  -27.4750   26.5240 C   0  0  0  0  0  0  0  0  0  0  0  0
    9.7800  -26.7540   25.5340 N   0  0  0  0  0  0  0  0  0  0  0  0
    8.5270  -27.0570   25.0790 C   0  0  0  0  0  0  0  0  0  0  0  0
    8.2080  -26.0910   24.1450 C   0  0  0  0  0  0  0  0  0  0  0  0
    6.9770  -25.9840   23.3820 C   0  0  0  0  0  0  0  0  0  0  0  0
    6.0730  -27.0240   23.2680 C   0  0  0  0  0  0  0  0  0  0  0  0
    4.9170  -26.8550   22.5320 C   0  0  0  0  0  0  0  0  0  0  0  0
    4.0650  -27.8930   22.4690 N   0  0  0  0  0  0  0  0  0  0  0  0
    2.9180  -27.7450   21.7730 C   0  0  0  0  0  0  0  0  0  0  0  0
    2.5650  -26.5830   21.1240 C   0  0  0  0  0  0  0  0  0  0  0  0
    3.4480  -25.5120   21.1880 C   0  0  0  0  0  0  0  0  0  0  0  0
    4.6720  -25.6260   21.8950 C   0  0  0  0  0  0  0  0  0  0  0  0
    5.6580  -24.6280   22.0410 C   0  0  0  0  0  0  0  0  0  0  0  0
    5.6050  -23.3040   21.4370 C   0  0  0  0  0  0  0  0  0  0  0  0
    5.1030  -22.0900   21.8490 C   0  0  0  0  0  0  0  0  0  0  0  0
    5.4420  -21.2060   20.8090 C   0  0  0  0  0  0  0  0  0  0  0  0
    5.0840  -19.6790   20.7620 C   0  0  0  0  0  0  0  0  0  0  0  0
    5.2080  -18.9990   22.1290 C   0  0  0  0  0  0  0  0  0  0  0  0
    3.9690  -19.1390   22.9020 C   0  0  0  0  0  0  0  0  0  0  0  0
    2.9760  -19.2730   23.4870 N   0  0  0  0  0  0  0  0  0  0  0  0
    3.7240  -19.4010   20.0480 C   0  0  0  0  0  0  0  0  0  0  0  0
    4.3700  -18.2290   19.3980 N   0  0  0  0  0  0  0  0  0  0  0  0
    3.9840  -18.1300   17.9760 C   0  0  0  0  0  0  0  0  0  0  0  0
    3.5150  -16.7770   17.6120 C   0  0  0  0  0  0  0  0  0  0  0  0
    3.1290  -15.7210   17.3150 N   0  0  0  0  0  0  0  0  0  0  0  0
    5.6810  -18.9150   19.5380 C   0  0  0  0  0  0  0  0  0  0  0  0
    6.0940  -21.8200   19.8190 N   0  0  0  0  0  0  0  0  0  0  0  0
    6.2230  -23.1380   20.2320 O   0  0  0  0  0  0  0  0  0  0  0  0
    6.7820  -24.7920   22.7830 N   0  0  0  0  0  0  0  0  0  0  0  0
    9.3490  -25.2560   24.1210 C   0  0  0  0  0  0  0  0  0  0  0  0
   10.3060  -25.6590   24.9620 N   0  0  0  0  0  0  0  0  0  0  0  0
  1  2  1  0
  2  3  1  0
  3  4  2  0
  4  5  1  0
  5  6  2  0
  6  7  1  0
  7  8  2  0
  8  9  1  0
  9 10  2  0
 10 11  1  0
 11 12  2  0
 12 13  1  0
 13 14  1  0
 14 15  2  0
 15 16  1  0
 16 17  1  0
 17 18  1  0
 18 19  1  0
 19 20  3  0
 17 21  1  0
 21 22  1  0
 22 23  1  0
 23 24  1  0
 24 25  3  0
 22 26  1  0
 16 27  2  0
 27 28  1  0
 13 29  2  0
  4 30  1  0
 30 31  2  0
 31  2  1  0
 29  5  1  0
 12  7  1  0
 28 14  1  0
 26 17  1  0
M  END
$$$$
