HGOOOJAHOUQCDO-UHFFFAOYSA-N_5U3Q_m7
     RDKit          3D

 30 33  0  0  0  0  0  0  0  0999 V2000
   47.7350  -34.1630  108.5270 O   0  0  0  0  0  0  0  0  0  0  0  0
   48.4070  -34.4760  107.5590 C   0  0  0  0  0  0  0  0  0  0  0  0
   49.2070  -33.5560  106.9700 O   0  0  0  0  0  0  0  0  0  0  0  0
   48.4930  -35.8250  106.8680 C   0  0  0  0  0  0  0  0  0  0  0  0
   49.1250  -36.7740  107.7170 O   0  0  0  0  0  0  0  0  0  0  0  0
   48.4090  -37.8940  108.0360 C   0  0  0  0  0  0  0  0  0  0  0  0
   47.2530  -37.9400  108.8160 C   0  0  0  0  0  0  0  0  0  0  0  0
   46.6200  -39.1620  109.0660 C   0  0  0  0  0  0  0  0  0  0  0  0
   47.1320  -40.3540  108.5370 C   0  0  0  0  0  0  0  0  0  0  0  0
   46.4590  -41.6750  108.8260 C   0  0  0  0  0  0  0  0  0  0  0  0
   46.1440  -42.4920  107.5660 C   0  0  0  0  0  0  0  0  0  0  0  0
   45.1280  -41.8380  106.6630 C   0  0  0  0  0  0  0  0  0  0  0  0
   44.2060  -40.9220  107.1700 C   0  0  0  0  0  0  0  0  0  0  0  0
   43.2770  -40.2990  106.3240 C   0  0  0  0  0  0  0  0  0  0  0  0
   43.2360  -40.5640  104.9450 C   0  0  0  0  0  0  0  0  0  0  0  0
   42.2900  -39.9220  104.0830 N   0  0  0  0  0  0  0  0  0  0  0  0
   40.9440  -39.7650  104.3570 C   0  0  0  0  0  0  0  0  0  0  0  0
   40.2570  -40.0910  105.3100 O   0  0  0  0  0  0  0  0  0  0  0  0
   40.3500  -39.0590  103.2280 C   0  0  0  0  0  0  0  0  0  0  0  0
   39.0460  -38.6550  103.0100 C   0  0  0  0  0  0  0  0  0  0  0  0
   38.7720  -37.9830  101.8150 C   0  0  0  0  0  0  0  0  0  0  0  0
   39.7960  -37.7330  100.8790 C   0  0  0  0  0  0  0  0  0  0  0  0
   41.1060  -38.1520  101.1250 C   0  0  0  0  0  0  0  0  0  0  0  0
   41.3490  -38.8150  102.3150 C   0  0  0  0  0  0  0  0  0  0  0  0
   42.5870  -39.3670  102.8520 C   0  0  0  0  0  0  0  0  0  0  0  0
   43.6220  -39.2890  102.2130 O   0  0  0  0  0  0  0  0  0  0  0  0
   44.1740  -41.4860  104.4550 C   0  0  0  0  0  0  0  0  0  0  0  0
   45.1050  -42.1120  105.2960 C   0  0  0  0  0  0  0  0  0  0  0  0
   48.2910  -40.3030  107.7570 C   0  0  0  0  0  0  0  0  0  0  0  0
   48.9220  -39.0810  107.5090 C   0  0  0  0  0  0  0  0  0  0  0  0
  1  2  2  0
  2  3  1  0
  2  4  1  0
  4  5  1  0
  5  6  1  0
  6  7  2  0
  7  8  1  0
  8  9  2  0
  9 10  1  0
 10 11  1  0
 11 12  1  0
 12 13  2  0
 13 14  1  0
 14 15  2  0
 15 16  1  0
 16 17  1  0
 17 18  2  0
 17 19  1  0
 19 20  2  0
 20 21  1  0
 21 22  2  0
 22 23  1  0
 23 24  2  0
 24 25  1  0
 25 26  2  0
 15 27  1  0
 27 28  2  0
  9 29  1  0
 29 30  2  0
 30  6  1  0
 28 12  1  0
 25 16  1  0
 24 19  1  0
M  END
$$$$
