HHCYMSNTCQTAOH-UHFFFAOYSA-N_4BDS_m8
     RDKit          3D

 27 29  0  0  0  0  0  0  0  0999 V2000
  136.5990  110.4640   42.4400 C   0  0  0  0  0  0  0  0  0  0  0  0
  136.4390  109.6760   41.1500 C   0  0  0  0  0  0  0  0  0  0  0  0
  135.3220  110.2500   40.2720 C   0  0  0  0  0  0  0  0  0  0  0  0
  135.9140  110.9090   39.0240 C   0  0  0  0  0  0  0  0  0  0  0  0
  135.0950  112.1090   38.4970 N   0  0  2  0  0  0  0  0  0  0  0  0
  134.5030  111.7830   37.1180 C   0  0  0  0  0  0  0  0  0  0  0  0
  135.9520  113.3980   38.3140 C   0  0  0  0  0  0  0  0  0  0  0  0
  137.4170  113.2280   38.7270 C   0  0  0  0  0  0  0  0  0  0  0  0
  137.9730  114.4980   39.3850 C   0  0  0  0  0  0  0  0  0  0  0  0
  139.3200  114.2960   40.0000 C   0  0  0  0  0  0  0  0  0  0  0  0
  140.1970  113.2690   39.7170 C   0  0  0  0  0  0  0  0  0  0  0  0
  141.3200  113.4330   40.4850 N   0  0  0  0  0  0  0  0  0  0  0  0
  141.2050  114.5670   41.2530 C   0  0  0  0  0  0  0  0  0  0  0  0
  142.1020  115.1240   42.1700 C   0  0  0  0  0  0  0  0  0  0  0  0
  141.7050  116.2830   42.8450 C   0  0  0  0  0  0  0  0  0  0  0  0
  140.4580  116.8540   42.6130 C   0  0  0  0  0  0  0  0  0  0  0  0
  139.5710  116.2830   41.6920 C   0  0  0  0  0  0  0  0  0  0  0  0
  139.9510  115.1200   40.9890 C   0  0  0  0  0  0  0  0  0  0  0  0
  133.9470  112.4320   39.5040 C   0  0  0  0  0  0  0  0  0  0  0  0
  133.6800  113.9330   39.6780 C   0  0  0  0  0  0  0  0  0  0  0  0
  133.6990  114.3800   41.1660 C   0  0  0  0  0  0  0  0  0  0  0  0
  134.7640  113.5950   41.9570 C   0  0  0  0  0  0  0  0  0  0  0  0
  134.9160  113.9520   43.4370 C   0  0  0  0  0  0  0  0  0  0  0  0
  134.5760  115.4150   43.7330 C   0  0  0  0  0  0  0  0  0  0  0  0
  133.0750  115.7600   43.6980 C   0  0  0  0  0  0  0  0  0  0  0  0
  132.1810  114.6020   43.2560 C   0  0  0  0  0  0  0  0  0  0  0  0
  132.2790  114.3300   41.7560 C   0  0  0  0  0  0  0  0  0  0  0  0
  1  2  1  0
  2  3  1  0
  3  4  1  0
  4  5  1  0
  5  6  1  6
  5  7  1  0
  7  8  1  0
  8  9  1  0
  9 10  1  0
 10 11  2  0
 11 12  1  0
 12 13  1  0
 13 14  2  0
 14 15  1  0
 15 16  2  0
 16 17  1  0
 17 18  2  0
  5 19  1  0
 19 20  1  0
 20 21  1  0
 21 22  1  0
 22 23  1  0
 23 24  1  0
 24 25  1  0
 25 26  1  0
 26 27  1  0
 18 10  1  0
 27 21  1  0
 18 13  1  0
M  CHG  1   5   1
M  END
$$$$
