HIONRJFCDLKILS-UHFFFAOYSA-N_3RCD_m9
     RDKit          3D

 24 26  0  0  0  0  0  0  0  0999 V2000
   11.4670    1.2170   32.2980 C   0  0  0  0  0  0  0  0  0  0  0  0
   11.6150    1.4540   30.9880 C   0  0  0  0  0  0  0  0  0  0  0  0
   12.9730    1.5620   30.3830 C   0  0  0  0  0  0  0  0  0  0  0  0
   13.8500    2.2420   30.9020 O   0  0  0  0  0  0  0  0  0  0  0  0
   13.0770    0.8360   29.2250 N   0  0  0  0  0  0  0  0  0  0  0  0
   14.1930    0.6920   28.4010 C   0  0  0  0  0  0  0  0  0  0  0  0
   14.7260    1.7020   27.6170 C   0  0  0  0  0  0  0  0  0  0  0  0
   15.8570    1.4380   26.8020 C   0  0  0  0  0  0  0  0  0  0  0  0
   16.4870    2.3700   25.9530 C   0  0  0  0  0  0  0  0  0  0  0  0
   15.9740    3.6830   25.8570 N   0  0  0  0  0  0  0  0  0  0  0  0
   14.8600    4.1890   25.1620 C   0  0  0  0  0  0  0  0  0  0  0  0
   14.5030    3.5970   23.9370 C   0  0  0  0  0  0  0  0  0  0  0  0
   13.3960    4.0460   23.2130 C   0  0  0  0  0  0  0  0  0  0  0  0
   12.6250    5.0880   23.7130 C   0  0  0  0  0  0  0  0  0  0  0  0
   11.5660    5.5040   23.0030 F   0  0  0  0  0  0  0  0  0  0  0  0
   12.9490    5.6790   24.9290 C   0  0  0  0  0  0  0  0  0  0  0  0
   11.8950    7.0890   25.6240 Br  0  0  0  0  0  0  0  0  0  0  0  0
   14.0570    5.2280   25.6530 C   0  0  0  0  0  0  0  0  0  0  0  0
   17.5810    2.0470   25.2380 N   0  0  0  0  0  0  0  0  0  0  0  0
   18.0340    0.7960   25.3420 C   0  0  0  0  0  0  0  0  0  0  0  0
   17.5070   -0.1690   26.1000 N   0  0  0  0  0  0  0  0  0  0  0  0
   16.4300    0.1650   26.8220 C   0  0  0  0  0  0  0  0  0  0  0  0
   15.8180   -0.7600   27.6510 C   0  0  0  0  0  0  0  0  0  0  0  0
   14.7260   -0.5400   28.4320 N   0  0  0  0  0  0  0  0  0  0  0  0
  1  2  2  0
  2  3  1  0
  3  4  2  0
  3  5  1  0
  5  6  1  0
  6  7  2  0
  7  8  1  0
  8  9  2  0
  9 10  1  0
 10 11  1  0
 11 12  2  0
 12 13  1  0
 13 14  2  0
 14 15  1  0
 14 16  1  0
 16 17  1  0
 16 18  2  0
  9 19  1  0
 19 20  2  0
 20 21  1  0
 21 22  2  0
 22 23  1  0
 23 24  2  0
 24  6  1  0
 22  8  1  0
 18 11  1  0
M  END
$$$$
