HKMDEQIJNRKKNH-UHFFFAOYSA-N_4UDW_m4
     RDKit          3D

 35 38  0  0  0  0  0  0  0  0999 V2000
  127.8290  -14.2140  158.6390 C   0  0  0  0  0  0  0  0  0  0  0  0
  127.7520  -14.4540  160.0990 C   0  0  0  0  0  0  0  0  0  0  0  0
  128.4510  -15.4060  160.8580 C   0  0  0  0  0  0  0  0  0  0  0  0
  127.9830  -15.2680  162.1510 C   0  0  0  0  0  0  0  0  0  0  0  0
  128.3160  -16.1150  163.2690 C   0  0  0  0  0  0  0  0  0  0  0  0
  127.5060  -16.9110  163.7270 O   0  0  0  0  0  0  0  0  0  0  0  0
  129.5900  -15.9070  163.7590 N   0  0  0  0  0  0  0  0  0  0  0  0
  130.2840  -16.6810  164.7150 C   0  0  0  0  0  0  0  0  0  0  0  0
  130.5400  -16.2820  166.0240 C   0  0  0  0  0  0  0  0  0  0  0  0
  131.1870  -17.1510  166.9140 C   0  0  0  0  0  0  0  0  0  0  0  0
  131.5730  -18.4430  166.5260 C   0  0  0  0  0  0  0  0  0  0  0  0
  132.2580  -19.3500  167.4550 C   0  0  0  0  0  0  0  0  0  0  0  0
  131.4520  -20.2380  168.2020 C   0  0  0  0  0  0  0  0  0  0  0  0
  131.9980  -21.1430  169.1140 C   0  0  0  0  0  0  0  0  0  0  0  0
  133.3710  -21.1870  169.3040 C   0  0  0  0  0  0  0  0  0  0  0  0
  134.1960  -20.3280  168.5810 C   0  0  0  0  0  0  0  0  0  0  0  0
  133.6520  -19.4090  167.6640 C   0  0  0  0  0  0  0  0  0  0  0  0
  134.8140  -18.3510  166.8090 S   0  0  0  0  0  0  0  0  0  0  0  0
  136.4240  -18.9890  167.1690 C   0  0  0  0  0  0  0  0  0  0  0  0
  134.6880  -17.0160  167.3590 O   0  0  0  0  0  0  0  0  0  0  0  0
  134.6070  -18.5610  165.3850 O   0  0  0  0  0  0  0  0  0  0  0  0
  131.3380  -18.8270  165.1990 C   0  0  0  0  0  0  0  0  0  0  0  0
  130.7020  -17.9560  164.3180 C   0  0  0  0  0  0  0  0  0  0  0  0
  130.4640  -18.3650  163.0620 F   0  0  0  0  0  0  0  0  0  0  0  0
  127.1680  -14.1430  162.1380 N   0  0  0  0  0  0  0  0  0  0  0  0
  126.5940  -13.4000  163.2180 C   0  0  0  0  0  0  0  0  0  0  0  0
  126.9610  -12.0520  163.3850 C   0  0  0  0  0  0  0  0  0  0  0  0
  126.3980  -11.2790  164.4040 C   0  0  0  0  0  0  0  0  0  0  0  0
  125.4590  -11.8400  165.2660 C   0  0  0  0  0  0  0  0  0  0  0  0
  125.1030  -13.1830  165.1220 C   0  0  0  0  0  0  0  0  0  0  0  0
  124.0800  -13.7810  166.0230 C   0  0  0  0  0  0  0  0  0  0  0  0
  123.2670  -14.7040  165.6140 N   0  0  0  0  0  0  0  0  0  0  0  0
  123.9810  -13.3800  167.3130 N   0  0  0  0  0  0  0  0  0  0  0  0
  125.6880  -13.9710  164.1200 C   0  0  0  0  0  0  0  0  0  0  0  0
  126.9130  -13.7480  160.8590 N   0  0  0  0  0  0  0  0  0  0  0  0
  1  2  1  0
  2  3  1  0
  3  4  2  0
  4  5  1  0
  5  6  2  0
  5  7  1  0
  7  8  1  0
  8  9  2  0
  9 10  1  0
 10 11  2  0
 11 12  1  0
 12 13  2  0
 13 14  1  0
 14 15  2  0
 15 16  1  0
 16 17  2  0
 17 18  1  0
 18 19  1  0
 18 20  2  0
 18 21  2  0
 11 22  1  0
 22 23  2  0
 23 24  1  0
  4 25  1  0
 25 26  1  0
 26 27  2  0
 27 28  1  0
 28 29  2  0
 29 30  1  0
 30 31  1  0
 31 32  2  3
 31 33  1  0
 30 34  2  0
 25 35  1  0
 35  2  2  0
 23  8  1  0
 34 26  1  0
 17 12  1  0
M  END
$$$$
