HRZCOFVBUBDIIR-PKOBYXMFSA-N_6N7A_m1
     RDKit          3D

 35 39  0  0  0  0  0  0  0  0999 V2000
   10.6800  -25.2890   25.0060 C   0  0  0  0  0  0  0  0  0  0  0  0
    9.7590  -26.3930   25.1290 N   0  0  0  0  0  0  0  0  0  0  0  0
    9.9930  -27.5910   25.7290 C   0  0  0  0  0  0  0  0  0  0  0  0
    8.8290  -28.3130   25.5860 C   0  0  0  0  0  0  0  0  0  0  0  0
    7.9500  -27.4610   24.8850 C   0  0  0  0  0  0  0  0  0  0  0  0
    6.6610  -27.6730   24.4650 N   0  0  0  0  0  0  0  0  0  0  0  0
    6.2890  -28.2010   23.2440 C   0  0  0  0  0  0  0  0  0  0  0  0
    7.0630  -28.5520   22.3610 O   0  0  0  0  0  0  0  0  0  0  0  0
    4.7740  -28.2550   23.0950 C   0  0  0  0  0  0  0  0  0  0  0  0
    4.1810  -27.1270   22.2880 C   0  0  0  0  0  0  0  0  0  0  0  0
    2.8280  -27.1440   21.9350 C   0  0  0  0  0  0  0  0  0  0  0  0
    2.2890  -26.1070   21.1790 C   0  0  0  0  0  0  0  0  0  0  0  0
    3.0970  -25.0420   20.7690 C   0  0  0  0  0  0  0  0  0  0  0  0
    4.4490  -24.9830   21.1190 C   0  0  0  0  0  0  0  0  0  0  0  0
    5.3170  -23.9480   20.7090 N   0  0  0  0  0  0  0  0  0  0  0  0
    5.3470  -22.6250   21.0010 C   0  0  0  0  0  0  0  0  0  0  0  0
    4.4530  -21.6820   20.6680 N   0  0  0  0  0  0  0  0  0  0  0  0
    4.9380  -20.5280   21.1790 N   0  0  0  0  0  0  0  0  0  0  0  0
    4.1650  -19.3030   20.9730 C   0  0  2  0  0  0  0  0  0  0  0  0
    2.7240  -19.4950   21.4810 C   0  0  0  0  0  0  0  0  0  0  0  0
    1.8580  -18.2670   21.2240 C   0  0  0  0  0  0  0  0  0  0  0  0
    1.8700  -17.8880   19.7480 C   0  0  0  0  0  0  0  0  0  0  0  0
    3.2910  -17.6410   19.2570 C   0  0  0  0  0  0  0  0  0  0  0  0
    4.2090  -18.8510   19.4970 C   0  0  1  0  0  0  0  0  0  0  0  0
    5.5900  -18.4870   19.1230 C   0  0  0  0  0  0  0  0  0  0  0  0
    6.6730  -18.1580   18.8660 N   0  0  0  0  0  0  0  0  0  0  0  0
    6.1280  -20.7040   21.8110 C   0  0  0  0  0  0  0  0  0  0  0  0
    6.9510  -19.7440   22.4380 C   0  0  0  0  0  0  0  0  0  0  0  0
    8.0890  -20.2360   22.9680 C   0  0  0  0  0  0  0  0  0  0  0  0
    8.4180  -21.5850   22.9030 N   0  0  0  0  0  0  0  0  0  0  0  0
    7.6360  -22.5630   22.2890 C   0  0  0  0  0  0  0  0  0  0  0  0
    7.9630  -23.7450   22.2480 O   0  0  0  0  0  0  0  0  0  0  0  0
    6.4150  -22.0470   21.7150 C   0  0  0  0  0  0  0  0  0  0  0  0
    4.9750  -26.0400   21.8840 C   0  0  0  0  0  0  0  0  0  0  0  0
    8.5210  -26.2830   24.6130 N   0  0  0  0  0  0  0  0  0  0  0  0
  1  2  1  0
  2  3  1  0
  3  4  2  0
  4  5  1  0
  5  6  1  0
  6  7  1  0
  7  8  2  0
  7  9  1  0
  9 10  1  0
 10 11  2  0
 11 12  1  0
 12 13  2  0
 13 14  1  0
 14 15  1  0
 15 16  1  0
 16 17  2  0
 17 18  1  0
 19 18  1  6
 19 20  1  0
 20 21  1  0
 21 22  1  0
 22 23  1  0
 23 24  1  0
 24 25  1  1
 25 26  3  0
 18 27  1  0
 27 28  1  0
 28 29  2  0
 29 30  1  0
 30 31  1  0
 31 32  2  0
 31 33  1  0
 14 34  2  0
  5 35  2  0
 35  2  1  0
 34 10  1  0
 33 16  1  0
 24 19  1  0
 33 27  2  0
M  END
$$$$
