HRZCOFVBUBDIIR-PKOBYXMFSA-N_8BXH_m9
     RDKit          3D

 35 39  0  0  0  0  0  0  0  0999 V2000
  -19.0070   18.7080   21.1720 C   0  0  0  0  0  0  0  0  0  0  0  0
  -18.0110   17.8900   20.5240 N   0  0  0  0  0  0  0  0  0  0  0  0
  -17.3070   18.1940   19.4000 C   0  0  0  0  0  0  0  0  0  0  0  0
  -16.4930   17.1090   19.1650 C   0  0  0  0  0  0  0  0  0  0  0  0
  -16.7800   16.2000   20.2060 C   0  0  0  0  0  0  0  0  0  0  0  0
  -16.2660   14.9520   20.4560 N   0  0  0  0  0  0  0  0  0  0  0  0
  -15.8750   14.0370   19.4990 C   0  0  0  0  0  0  0  0  0  0  0  0
  -15.9340   14.2110   18.2870 O   0  0  0  0  0  0  0  0  0  0  0  0
  -15.3940   12.7370   20.1310 C   0  0  0  0  0  0  0  0  0  0  0  0
  -13.9920   12.3310   19.7480 C   0  0  0  0  0  0  0  0  0  0  0  0
  -13.7110   11.0100   19.3870 C   0  0  0  0  0  0  0  0  0  0  0  0
  -12.4130   10.6390   19.0480 C   0  0  0  0  0  0  0  0  0  0  0  0
  -11.3840   11.5850   19.0660 C   0  0  0  0  0  0  0  0  0  0  0  0
  -11.6320   12.9180   19.4050 C   0  0  0  0  0  0  0  0  0  0  0  0
  -10.6270   13.9080   19.4670 N   0  0  0  0  0  0  0  0  0  0  0  0
  -10.6950   15.2590   19.5650 C   0  0  0  0  0  0  0  0  0  0  0  0
  -11.7640   16.0500   19.3940 N   0  0  0  0  0  0  0  0  0  0  0  0
  -11.3140   17.3110   19.5850 N   0  0  0  0  0  0  0  0  0  0  0  0
  -12.2700   18.4110   19.4640 C   0  0  2  0  0  0  0  0  0  0  0  0
  -11.6500   19.5660   18.6550 C   0  0  0  0  0  0  0  0  0  0  0  0
  -12.5850   20.7660   18.5610 C   0  0  0  0  0  0  0  0  0  0  0  0
  -13.0100   21.2370   19.9470 C   0  0  0  0  0  0  0  0  0  0  0  0
  -13.6760   20.1130   20.7290 C   0  0  0  0  0  0  0  0  0  0  0  0
  -12.7750   18.8720   20.8490 C   0  0  1  0  0  0  0  0  0  0  0  0
  -13.5370   17.7860   21.4950 C   0  0  0  0  0  0  0  0  0  0  0  0
  -14.1740   16.9360   21.9620 N   0  0  0  0  0  0  0  0  0  0  0  0
   -9.9820   17.3480   19.8530 C   0  0  0  0  0  0  0  0  0  0  0  0
   -9.1530   18.4670   20.0790 C   0  0  0  0  0  0  0  0  0  0  0  0
   -7.8560   18.1720   20.3060 C   0  0  0  0  0  0  0  0  0  0  0  0
   -7.3820   16.8660   20.3190 N   0  0  0  0  0  0  0  0  0  0  0  0
   -8.1660   15.7340   20.0960 C   0  0  0  0  0  0  0  0  0  0  0  0
   -7.7090   14.5960   20.1120 O   0  0  0  0  0  0  0  0  0  0  0  0
   -9.5560   16.0380   19.8490 C   0  0  0  0  0  0  0  0  0  0  0  0
  -12.9500   13.2740   19.7440 C   0  0  0  0  0  0  0  0  0  0  0  0
  -17.7050   16.6860   21.0390 N   0  0  0  0  0  0  0  0  0  0  0  0
  1  2  1  0
  2  3  1  0
  3  4  2  0
  4  5  1  0
  5  6  1  0
  6  7  1  0
  7  8  2  0
  7  9  1  0
  9 10  1  0
 10 11  2  0
 11 12  1  0
 12 13  2  0
 13 14  1  0
 14 15  1  0
 15 16  1  0
 16 17  2  0
 17 18  1  0
 19 18  1  1
 19 20  1  0
 20 21  1  0
 21 22  1  0
 22 23  1  0
 23 24  1  0
 24 25  1  6
 25 26  3  0
 18 27  1  0
 27 28  1  0
 28 29  2  0
 29 30  1  0
 30 31  1  0
 31 32  2  0
 31 33  1  0
 14 34  2  0
  5 35  2  0
 35  2  1  0
 34 10  1  0
 33 16  1  0
 24 19  1  0
 33 27  2  0
M  END
$$$$
