IAFWMQLCVYEVEF-UHFFFAOYSA-N_9V8H_m2
     RDKit          3D

 29 31  0  0  0  0  0  0  0  0999 V2000
  -11.1910   -8.5910  -28.7950 C   0  0  0  0  0  0  0  0  0  0  0  0
   -9.7190   -8.7340  -28.5310 C   0  0  0  0  0  0  0  0  0  0  0  0
   -8.7950   -8.5550  -29.5650 C   0  0  0  0  0  0  0  0  0  0  0  0
   -7.4320   -8.7180  -29.3260 C   0  0  0  0  0  0  0  0  0  0  0  0
   -6.9830   -9.0740  -28.0530 C   0  0  0  0  0  0  0  0  0  0  0  0
   -7.8890   -9.2760  -27.0010 C   0  0  0  0  0  0  0  0  0  0  0  0
   -7.3890   -9.6560  -25.6860 C   0  0  0  0  0  0  0  0  0  0  0  0
   -7.7480   -9.2310  -24.4930 N   0  0  0  0  0  0  0  0  0  0  0  0
   -6.9300   -9.9620  -23.6620 C   0  0  0  0  0  0  0  0  0  0  0  0
   -6.9680   -9.8290  -22.1780 C   0  0  0  0  0  0  0  0  0  0  0  0
   -7.7970   -8.7320  -21.7780 O   0  0  0  0  0  0  0  0  0  0  0  0
   -7.1680   -7.6210  -21.2880 C   0  0  0  0  0  0  0  0  0  0  0  0
   -5.8110   -7.5070  -20.9860 C   0  0  0  0  0  0  0  0  0  0  0  0
   -5.3010   -6.3040  -20.4870 C   0  0  0  0  0  0  0  0  0  0  0  0
   -6.1390   -5.1990  -20.2850 C   0  0  0  0  0  0  0  0  0  0  0  0
   -5.5850   -3.9080  -19.7200 C   0  0  0  0  0  0  0  0  0  0  0  0
   -4.5790   -3.2510  -20.6760 C   0  0  1  0  0  0  0  0  0  0  0  0
   -4.9940   -1.8950  -20.8890 O   0  0  0  0  0  0  0  0  0  0  0  0
   -4.5080   -1.3200  -22.1040 C   0  0  0  0  0  0  0  0  0  0  0  0
   -3.5890   -0.1440  -21.7860 C   0  0  0  0  0  0  0  0  0  0  0  0
   -3.7380   -2.4090  -22.8420 C   0  0  0  0  0  0  0  0  0  0  0  0
   -3.1820   -3.3240  -20.0530 C   0  0  0  0  0  0  0  0  0  0  0  0
   -2.4370   -4.2900  -20.0050 O   0  0  0  0  0  0  0  0  0  0  0  0
   -2.8070   -2.1650  -19.4660 O   0  0  0  0  0  0  0  0  0  0  0  0
   -7.4990   -5.3200  -20.5860 C   0  0  0  0  0  0  0  0  0  0  0  0
   -8.0060   -6.5220  -21.0850 C   0  0  0  0  0  0  0  0  0  0  0  0
   -6.0790  -10.7840  -24.2930 N   0  0  0  0  0  0  0  0  0  0  0  0
   -6.3870  -10.5870  -25.6410 O   0  0  0  0  0  0  0  0  0  0  0  0
   -9.2600   -9.1060  -27.2580 C   0  0  0  0  0  0  0  0  0  0  0  0
  1  2  1  0
  2  3  2  0
  3  4  1  0
  4  5  2  0
  5  6  1  0
  6  7  1  0
  7  8  2  0
  8  9  1  0
  9 10  1  0
 10 11  1  0
 11 12  1  0
 12 13  2  0
 13 14  1  0
 14 15  2  0
 15 16  1  0
 17 16  1  1
 17 18  1  0
 18 19  1  0
 19 20  1  0
 19 21  1  0
 17 22  1  0
 22 23  2  0
 22 24  1  0
 15 25  1  0
 25 26  2  0
  9 27  2  0
 27 28  1  0
  6 29  2  0
 29  2  1  0
 28  7  1  0
 26 12  1  0
M  END
$$$$
