ICPHLXAHKNXIGM-UHFFFAOYSA-N_4L23_m5
     RDKit          3D

 30 34  0  0  0  0  0  0  0  0999 V2000
   34.2530   46.6640   36.0630 N   0  0  0  0  0  0  0  0  0  0  0  0
   33.3770   47.0130   37.0620 C   0  0  0  0  0  0  0  0  0  0  0  0
   32.2050   47.5570   36.6670 N   0  0  0  0  0  0  0  0  0  0  0  0
   31.2930   47.8820   37.6010 C   0  0  0  0  0  0  0  0  0  0  0  0
   31.3800   47.7230   38.9310 N   0  0  0  0  0  0  0  0  0  0  0  0
   32.5640   47.1880   39.2790 C   0  0  0  0  0  0  0  0  0  0  0  0
   33.6020   46.8340   38.4330 C   0  0  0  0  0  0  0  0  0  0  0  0
   34.6280   46.3540   39.3020 C   0  0  0  0  0  0  0  0  0  0  0  0
   35.9630   45.8670   38.9690 C   0  0  0  0  0  0  0  0  0  0  0  0
   36.9330   46.7710   38.4980 C   0  0  0  0  0  0  0  0  0  0  0  0
   38.2130   46.3250   38.1570 C   0  0  0  0  0  0  0  0  0  0  0  0
   38.5160   44.9760   38.2820 C   0  0  0  0  0  0  0  0  0  0  0  0
   39.7410   44.5320   37.9590 F   0  0  0  0  0  0  0  0  0  0  0  0
   37.5580   44.0730   38.7390 C   0  0  0  0  0  0  0  0  0  0  0  0
   37.8530   42.7440   38.8630 O   0  0  0  0  0  0  0  0  0  0  0  0
   36.2810   44.5070   39.0780 C   0  0  0  0  0  0  0  0  0  0  0  0
   34.2390   46.3870   40.5900 N   0  0  0  0  0  0  0  0  0  0  0  0
   32.9690   46.8460   40.5390 N   0  0  0  0  0  0  0  0  0  0  0  0
   32.1730   46.9520   41.7530 C   0  0  0  0  0  0  0  0  0  0  0  0
   31.3000   45.7710   41.9710 C   0  0  0  0  0  0  0  0  0  0  0  0
   31.0820   44.9700   40.8740 O   0  0  0  0  0  0  0  0  0  0  0  0
   30.2310   44.0080   41.3300 C   0  0  0  0  0  0  0  0  0  0  0  0
   29.9040   44.1040   42.5990 N   0  0  0  0  0  0  0  0  0  0  0  0
   30.5940   45.2170   43.0230 C   0  0  0  0  0  0  0  0  0  0  0  0
   30.5030   45.7300   44.3700 C   0  0  0  0  0  0  0  0  0  0  0  0
   30.4240   44.8320   45.4440 C   0  0  0  0  0  0  0  0  0  0  0  0
   30.2950   45.3050   46.7500 C   0  0  0  0  0  0  0  0  0  0  0  0
   30.2580   46.6780   46.9910 C   0  0  0  0  0  0  0  0  0  0  0  0
   30.3560   47.5800   45.9290 C   0  0  0  0  0  0  0  0  0  0  0  0
   30.4820   47.1100   44.6200 C   0  0  0  0  0  0  0  0  0  0  0  0
  1  2  1  0
  2  3  2  0
  3  4  1  0
  4  5  2  0
  5  6  1  0
  6  7  2  0
  7  8  1  0
  8  9  1  0
  9 10  2  0
 10 11  1  0
 11 12  2  0
 12 13  1  0
 12 14  1  0
 14 15  1  0
 14 16  2  0
  8 17  2  0
 17 18  1  0
 18 19  1  0
 19 20  1  0
 20 21  1  0
 21 22  1  0
 22 23  2  0
 23 24  1  0
 24 25  1  0
 25 26  2  0
 26 27  1  0
 27 28  2  0
 28 29  1  0
 29 30  2  0
  7  2  1  0
 16  9  1  0
 24 20  2  0
 30 25  1  0
 18  6  1  0
M  END
$$$$
