ICPHLXAHKNXIGM-UHFFFAOYSA-N_4JT6_m3
     RDKit          3D

 30 34  0  0  0  0  0  0  0  0999 V2000
   53.8130   -0.8450  -41.1290 N   0  0  0  0  0  0  0  0  0  0  0  0
   52.5410   -1.2370  -41.4700 C   0  0  0  0  0  0  0  0  0  0  0  0
   51.8830   -1.9870  -40.5590 N   0  0  0  0  0  0  0  0  0  0  0  0
   50.6190   -2.3670  -40.8240 C   0  0  0  0  0  0  0  0  0  0  0  0
   49.8810   -2.0830  -41.9070 N   0  0  0  0  0  0  0  0  0  0  0  0
   50.5770   -1.3430  -42.7890 C   0  0  0  0  0  0  0  0  0  0  0  0
   51.8860   -0.9080  -42.6640 C   0  0  0  0  0  0  0  0  0  0  0  0
   52.1490   -0.2030  -43.8770 C   0  0  0  0  0  0  0  0  0  0  0  0
   53.3770    0.4530  -44.3120 C   0  0  0  0  0  0  0  0  0  0  0  0
   53.5870    0.6970  -45.6820 C   0  0  0  0  0  0  0  0  0  0  0  0
   54.7630    1.3090  -46.1230 C   0  0  0  0  0  0  0  0  0  0  0  0
   55.7290    1.6700  -45.1930 C   0  0  0  0  0  0  0  0  0  0  0  0
   56.8640    2.2590  -45.6010 F   0  0  0  0  0  0  0  0  0  0  0  0
   55.5330    1.4250  -43.8350 C   0  0  0  0  0  0  0  0  0  0  0  0
   56.4820    1.7780  -42.9170 O   0  0  0  0  0  0  0  0  0  0  0  0
   54.3670    0.8130  -43.3870 C   0  0  0  0  0  0  0  0  0  0  0  0
   51.0690   -0.1840  -44.6800 N   0  0  0  0  0  0  0  0  0  0  0  0
   50.1200   -0.8360  -43.9730 N   0  0  0  0  0  0  0  0  0  0  0  0
   48.7660   -0.9590  -44.4920 C   0  0  0  0  0  0  0  0  0  0  0  0
   48.5960   -2.1440  -45.3710 C   0  0  0  0  0  0  0  0  0  0  0  0
   48.0410   -3.2570  -44.7850 O   0  0  0  0  0  0  0  0  0  0  0  0
   48.0410   -4.1900  -45.7790 C   0  0  0  0  0  0  0  0  0  0  0  0
   48.5180   -3.7800  -46.9320 N   0  0  0  0  0  0  0  0  0  0  0  0
   48.8610   -2.4700  -46.6890 C   0  0  0  0  0  0  0  0  0  0  0  0
   49.4720   -1.6210  -47.6850 C   0  0  0  0  0  0  0  0  0  0  0  0
   48.7420   -1.2710  -48.8290 C   0  0  0  0  0  0  0  0  0  0  0  0
   49.3260   -0.4840  -49.8240 C   0  0  0  0  0  0  0  0  0  0  0  0
   50.6380   -0.0340  -49.6720 C   0  0  0  0  0  0  0  0  0  0  0  0
   51.3650   -0.3620  -48.5270 C   0  0  0  0  0  0  0  0  0  0  0  0
   50.7840   -1.1510  -47.5310 C   0  0  0  0  0  0  0  0  0  0  0  0
  1  2  1  0
  2  3  2  0
  3  4  1  0
  4  5  2  0
  5  6  1  0
  6  7  2  0
  7  8  1  0
  8  9  1  0
  9 10  2  0
 10 11  1  0
 11 12  2  0
 12 13  1  0
 12 14  1  0
 14 15  1  0
 14 16  2  0
  8 17  2  0
 17 18  1  0
 18 19  1  0
 19 20  1  0
 20 21  1  0
 21 22  1  0
 22 23  2  0
 23 24  1  0
 24 25  1  0
 25 26  2  0
 26 27  1  0
 27 28  2  0
 28 29  1  0
 29 30  2  0
  7  2  1  0
 16  9  1  0
 24 20  2  0
 30 25  1  0
 18  6  1  0
M  END
$$$$
