ICPHLXAHKNXIGM-UHFFFAOYSA-N_4JT6_m6
     RDKit          3D

 30 34  0  0  0  0  0  0  0  0999 V2000
   52.0420    1.2530  -49.8780 N   0  0  0  0  0  0  0  0  0  0  0  0
   51.0040    0.3900  -50.1340 C   0  0  0  0  0  0  0  0  0  0  0  0
   50.5170    0.3970  -51.3940 N   0  0  0  0  0  0  0  0  0  0  0  0
   49.5270   -0.4570  -51.7110 C   0  0  0  0  0  0  0  0  0  0  0  0
   48.9360   -1.3670  -50.9220 N   0  0  0  0  0  0  0  0  0  0  0  0
   49.4460   -1.3340  -49.6780 C   0  0  0  0  0  0  0  0  0  0  0  0
   50.4390   -0.4930  -49.2040 C   0  0  0  0  0  0  0  0  0  0  0  0
   50.5780   -0.8400  -47.8260 C   0  0  0  0  0  0  0  0  0  0  0  0
   51.4620   -0.2640  -46.8180 C   0  0  0  0  0  0  0  0  0  0  0  0
   51.0380   -0.2020  -45.4770 C   0  0  0  0  0  0  0  0  0  0  0  0
   51.8620    0.3590  -44.4970 C   0  0  0  0  0  0  0  0  0  0  0  0
   53.1030    0.8630  -44.8630 C   0  0  0  0  0  0  0  0  0  0  0  0
   53.9050    1.4050  -43.9330 F   0  0  0  0  0  0  0  0  0  0  0  0
   53.5270    0.8130  -46.1890 C   0  0  0  0  0  0  0  0  0  0  0  0
   54.7480    1.3080  -46.5520 O   0  0  0  0  0  0  0  0  0  0  0  0
   52.7130    0.2590  -47.1720 C   0  0  0  0  0  0  0  0  0  0  0  0
   49.7470   -1.8400  -47.4830 N   0  0  0  0  0  0  0  0  0  0  0  0
   49.1130   -2.1530  -48.6350 N   0  0  0  0  0  0  0  0  0  0  0  0
   48.1690   -3.2600  -48.6820 C   0  0  0  0  0  0  0  0  0  0  0  0
   46.7860   -2.8470  -48.3340 C   0  0  0  0  0  0  0  0  0  0  0  0
   45.8240   -3.0940  -49.2860 O   0  0  0  0  0  0  0  0  0  0  0  0
   44.6820   -2.5870  -48.7410 C   0  0  0  0  0  0  0  0  0  0  0  0
   44.8160   -2.0650  -47.5430 N   0  0  0  0  0  0  0  0  0  0  0  0
   46.1520   -2.2390  -47.2660 C   0  0  0  0  0  0  0  0  0  0  0  0
   46.7670   -1.7730  -46.0450 C   0  0  0  0  0  0  0  0  0  0  0  0
   47.1100   -2.7000  -45.0510 C   0  0  0  0  0  0  0  0  0  0  0  0
   47.6690   -2.2680  -43.8470 C   0  0  0  0  0  0  0  0  0  0  0  0
   47.9000   -0.9080  -43.6380 C   0  0  0  0  0  0  0  0  0  0  0  0
   47.5800    0.0200  -44.6300 C   0  0  0  0  0  0  0  0  0  0  0  0
   47.0180   -0.4090  -45.8350 C   0  0  0  0  0  0  0  0  0  0  0  0
  1  2  1  0
  2  3  2  0
  3  4  1  0
  4  5  2  0
  5  6  1  0
  6  7  2  0
  7  8  1  0
  8  9  1  0
  9 10  2  0
 10 11  1  0
 11 12  2  0
 12 13  1  0
 12 14  1  0
 14 15  1  0
 14 16  2  0
  8 17  2  0
 17 18  1  0
 18 19  1  0
 19 20  1  0
 20 21  1  0
 21 22  1  0
 22 23  2  0
 23 24  1  0
 24 25  1  0
 25 26  2  0
 26 27  1  0
 27 28  2  0
 28 29  1  0
 29 30  2  0
  7  2  1  0
 16  9  1  0
 24 20  2  0
 30 25  1  0
 18  6  1  0
M  END
$$$$
