IIBGSSDECOOUPY-DNVCBOLYSA-N_6N7A_m3
     RDKit          3D

 34 38  0  0  0  0  0  0  0  0999 V2000
    5.7110  -22.4440   23.3780 C   0  0  0  0  0  0  0  0  0  0  0  0
    5.5730  -22.6110   21.8920 C   0  0  0  0  0  0  0  0  0  0  0  0
    5.0220  -21.5720   21.1190 C   0  0  0  0  0  0  0  0  0  0  0  0
    4.8530  -21.6850   19.7250 C   0  0  0  0  0  0  0  0  0  0  0  0
    4.3250  -20.5820   19.0210 N   0  0  0  0  0  0  0  0  0  0  0  0
    4.1550  -19.2820   19.3620 C   0  0  0  0  0  0  0  0  0  0  0  0
    3.0130  -18.6250   19.6100 N   0  0  0  0  0  0  0  0  0  0  0  0
    3.3740  -17.3490   19.8750 N   0  0  0  0  0  0  0  0  0  0  0  0
    2.2990  -16.4220   20.1490 C   0  0  2  0  0  0  0  0  0  0  0  0
    0.9260  -17.0200   20.4900 C   0  0  0  0  0  0  0  0  0  0  0  0
   -0.0400  -16.2270   19.6390 C   0  0  0  0  0  0  0  0  0  0  0  0
   -1.2320  -16.0840   20.2410 F   0  0  0  0  0  0  0  0  0  0  0  0
   -0.2480  -16.8790   18.4730 F   0  0  0  0  0  0  0  0  0  0  0  0
    0.6230  -14.8920   19.3770 C   0  0  0  0  0  0  0  0  0  0  0  0
    2.0820  -15.2820   19.1340 C   0  0  2  0  0  0  0  0  0  0  0  0
    2.2950  -15.6560   17.7280 C   0  0  0  0  0  0  0  0  0  0  0  0
    2.4360  -15.9280   16.6100 N   0  0  0  0  0  0  0  0  0  0  0  0
    4.7250  -17.1780   19.8190 C   0  0  0  0  0  0  0  0  0  0  0  0
    5.4980  -16.0200   20.0580 C   0  0  0  0  0  0  0  0  0  0  0  0
    6.8300  -16.1870   19.9400 C   0  0  0  0  0  0  0  0  0  0  0  0
    7.3990  -17.4050   19.5950 N   0  0  0  0  0  0  0  0  0  0  0  0
    6.6790  -18.5730   19.3500 C   0  0  0  0  0  0  0  0  0  0  0  0
    7.2140  -19.6330   19.0420 O   0  0  0  0  0  0  0  0  0  0  0  0
    5.2510  -18.4080   19.4890 C   0  0  0  0  0  0  0  0  0  0  0  0
    5.2450  -22.8780   19.1110 C   0  0  0  0  0  0  0  0  0  0  0  0
    5.7790  -23.9310   19.8610 C   0  0  0  0  0  0  0  0  0  0  0  0
    5.9530  -23.7930   21.2410 C   0  0  0  0  0  0  0  0  0  0  0  0
    6.5130  -24.9340   22.0030 C   0  0  0  0  0  0  0  0  0  0  0  0
    7.7110  -24.9320   22.2770 O   0  0  0  0  0  0  0  0  0  0  0  0
    5.6520  -25.9540   22.3580 N   0  0  0  0  0  0  0  0  0  0  0  0
    6.1220  -27.0930   23.1230 C   0  0  0  0  0  0  0  0  0  0  0  0
    4.8570  -27.8700   23.4640 C   0  0  0  0  0  0  0  0  0  0  0  0
    3.9460  -27.5720   22.2790 C   0  0  0  0  0  0  0  0  0  0  0  0
    4.2560  -26.1140   21.9710 C   0  0  0  0  0  0  0  0  0  0  0  0
  1  2  1  0
  2  3  2  0
  3  4  1  0
  4  5  1  0
  5  6  1  0
  6  7  2  0
  7  8  1  0
  9  8  1  6
  9 10  1  0
 10 11  1  0
 11 12  1  0
 11 13  1  0
 11 14  1  0
 14 15  1  0
 15 16  1  6
 16 17  3  0
  8 18  1  0
 18 19  1  0
 19 20  2  0
 20 21  1  0
 21 22  1  0
 22 23  2  0
 22 24  1  0
  4 25  2  0
 25 26  1  0
 26 27  2  0
 27 28  1  0
 28 29  2  0
 28 30  1  0
 30 31  1  0
 31 32  1  0
 32 33  1  0
 33 34  1  0
 27  2  1  0
 34 30  1  0
 24  6  1  0
 15  9  1  0
 24 18  2  0
M  END
$$$$
