IINXCVBTZBRIPU-UHFFFAOYSA-N_4EY7_m8
     RDKit          3D

 38 41  0  0  0  0  0  0  0  0999 V2000
  -23.3280  -46.2620   21.2860 C   0  0  0  0  0  0  0  0  0  0  0  0
  -23.7990  -44.8260   21.1460 C   0  0  0  0  0  0  0  0  0  0  0  0
  -22.6710  -43.9410   21.0750 O   0  0  0  0  0  0  0  0  0  0  0  0
  -22.7190  -42.8650   21.8940 C   0  0  0  0  0  0  0  0  0  0  0  0
  -23.6810  -42.1610   22.1440 O   0  0  0  0  0  0  0  0  0  0  0  0
  -21.4050  -42.6930   22.5120 C   0  0  0  0  0  0  0  0  0  0  0  0
  -20.4000  -42.0060   21.8600 C   0  0  0  0  0  0  0  0  0  0  0  0
  -20.5890  -41.4210   20.4920 C   0  0  0  0  0  0  0  0  0  0  0  0
  -19.1840  -41.8160   22.4240 N   0  0  0  0  0  0  0  0  0  0  0  0
  -18.9530  -42.3110   23.6510 C   0  0  0  0  0  0  0  0  0  0  0  0
  -17.7140  -42.1090   24.2320 N   0  0  0  0  0  0  0  0  0  0  0  0
  -16.5830  -41.8940   23.3260 C   0  0  0  0  0  0  0  0  0  0  0  0
  -15.3380  -41.3730   24.0700 C   0  0  0  0  0  0  0  0  0  0  0  0
  -15.0230  -42.1400   25.3190 N   0  0  0  0  0  0  0  0  0  0  0  0
  -14.2190  -43.6250   25.1370 S   0  0  0  0  0  0  0  0  0  0  0  0
  -13.2500  -43.4920   24.0710 O   0  0  0  0  0  0  0  0  0  0  0  0
  -15.2080  -44.6800   25.1220 O   0  0  0  0  0  0  0  0  0  0  0  0
  -13.3340  -43.7720   26.6690 C   0  0  0  0  0  0  0  0  0  0  0  0
  -13.7570  -44.7130   27.6100 C   0  0  0  0  0  0  0  0  0  0  0  0
  -13.0660  -44.8490   28.8180 C   0  0  0  0  0  0  0  0  0  0  0  0
  -11.9490  -44.0520   29.0930 C   0  0  0  0  0  0  0  0  0  0  0  0
  -11.2070  -44.1440   30.2950 N   0  0  0  0  0  0  0  0  0  0  0  0
  -11.2960  -43.3420   31.4150 C   0  0  0  0  0  0  0  0  0  0  0  0
  -10.3390  -43.7590   32.5050 C   0  0  0  0  0  0  0  0  0  0  0  0
  -12.0260  -42.3680   31.5610 O   0  0  0  0  0  0  0  0  0  0  0  0
  -11.5370  -43.1130   28.1230 C   0  0  0  0  0  0  0  0  0  0  0  0
  -10.1620  -42.0960   28.4010 Cl  0  0  0  0  0  0  0  0  0  0  0  0
  -12.2200  -42.9700   26.9140 C   0  0  0  0  0  0  0  0  0  0  0  0
  -16.2280  -42.1830   26.2080 C   0  0  0  0  0  0  0  0  0  0  0  0
  -17.4530  -42.7880   25.5040 C   0  0  0  0  0  0  0  0  0  0  0  0
  -19.8890  -42.9830   24.3360 N   0  0  0  0  0  0  0  0  0  0  0  0
  -21.1000  -43.1910   23.7630 C   0  0  0  0  0  0  0  0  0  0  0  0
  -22.0190  -43.9990   24.5850 C   0  0  0  0  0  0  0  0  0  0  0  0
  -22.9080  -43.3770   25.4790 C   0  0  0  0  0  0  0  0  0  0  0  0
  -23.7840  -44.1270   26.2650 C   0  0  0  0  0  0  0  0  0  0  0  0
  -23.7810  -45.5170   26.1800 C   0  0  0  0  0  0  0  0  0  0  0  0
  -22.9000  -46.1550   25.3100 C   0  0  0  0  0  0  0  0  0  0  0  0
  -22.0230  -45.4040   24.5240 C   0  0  0  0  0  0  0  0  0  0  0  0
  1  2  1  0
  2  3  1  0
  3  4  1  0
  4  5  2  0
  4  6  1  0
  6  7  2  0
  7  8  1  0
  7  9  1  0
  9 10  2  0
 10 11  1  0
 11 12  1  0
 12 13  1  0
 13 14  1  0
 14 15  1  0
 15 16  2  0
 15 17  2  0
 15 18  1  0
 18 19  2  0
 19 20  1  0
 20 21  2  0
 21 22  1  0
 22 23  1  0
 23 24  1  0
 23 25  2  0
 21 26  1  0
 26 27  1  0
 26 28  2  0
 14 29  1  0
 29 30  1  0
 10 31  1  0
 31 32  2  0
 32 33  1  0
 33 34  2  0
 34 35  1  0
 35 36  2  0
 36 37  1  0
 37 38  2  0
 32  6  1  0
 38 33  1  0
 30 11  1  0
 28 18  1  0
M  END
$$$$
