IJULQVPTGWFUIR-UHFFFAOYSA-N_4UDW_m5
     RDKit          3D

 35 39  0  0  0  0  0  0  0  0999 V2000
  128.3150  -19.3200  159.2270 N   0  0  0  0  0  0  0  0  0  0  0  0
  127.6010  -19.7640  160.2730 C   0  0  0  0  0  0  0  0  0  0  0  0
  127.1440  -21.0130  160.3990 N   0  0  0  0  0  0  0  0  0  0  0  0
  126.4690  -21.0480  161.6090 O   0  0  0  0  0  0  0  0  0  0  0  0
  126.5280  -19.8240  162.1950 C   0  0  0  0  0  0  0  0  0  0  0  0
  125.9760  -19.4690  163.4210 C   0  0  0  0  0  0  0  0  0  0  0  0
  126.1650  -18.1410  163.8350 C   0  0  0  0  0  0  0  0  0  0  0  0
  126.8620  -17.2150  163.0420 C   0  0  0  0  0  0  0  0  0  0  0  0
  127.0780  -15.8620  163.4600 N   0  0  0  0  0  0  0  0  0  0  0  0
  125.9830  -15.0670  163.6430 N   0  0  0  0  0  0  0  0  0  0  0  0
  126.4500  -13.8220  163.8180 C   0  0  0  0  0  0  0  0  0  0  0  0
  125.5470  -12.6300  164.0090 C   0  0  0  0  0  0  0  0  0  0  0  0
  126.0270  -11.7910  164.9690 F   0  0  0  0  0  0  0  0  0  0  0  0
  124.2910  -12.9760  164.3950 F   0  0  0  0  0  0  0  0  0  0  0  0
  125.4310  -11.8890  162.8760 F   0  0  0  0  0  0  0  0  0  0  0  0
  127.8620  -13.8220  163.8160 C   0  0  0  0  0  0  0  0  0  0  0  0
  128.2510  -15.1420  163.6570 C   0  0  0  0  0  0  0  0  0  0  0  0
  129.5850  -15.6850  163.7760 C   0  0  0  0  0  0  0  0  0  0  0  0
  130.3090  -15.8480  162.8020 O   0  0  0  0  0  0  0  0  0  0  0  0
  129.9310  -15.9910  165.0770 N   0  0  0  0  0  0  0  0  0  0  0  0
  131.1360  -16.5600  165.5440 C   0  0  0  0  0  0  0  0  0  0  0  0
  132.3570  -15.9010  165.6030 C   0  0  0  0  0  0  0  0  0  0  0  0
  133.4960  -16.5660  166.0900 C   0  0  0  0  0  0  0  0  0  0  0  0
  133.4580  -17.9030  166.5220 C   0  0  0  0  0  0  0  0  0  0  0  0
  134.5790  -18.5630  167.0140 N   0  0  0  0  0  0  0  0  0  0  0  0
  135.9070  -18.1830  166.4860 C   0  0  0  0  0  0  0  0  0  0  0  0
  136.9340  -19.2940  166.7580 C   0  0  0  0  0  0  0  0  0  0  0  0
  136.9820  -19.6450  168.1490 O   0  0  0  0  0  0  0  0  0  0  0  0
  135.6990  -20.1270  168.5730 C   0  0  0  0  0  0  0  0  0  0  0  0
  134.6080  -19.0580  168.4030 C   0  0  0  0  0  0  0  0  0  0  0  0
  132.2170  -18.5450  166.4610 C   0  0  0  0  0  0  0  0  0  0  0  0
  131.0870  -17.8860  165.9800 C   0  0  0  0  0  0  0  0  0  0  0  0
  129.9170  -18.5460  165.9440 F   0  0  0  0  0  0  0  0  0  0  0  0
  127.4220  -17.6310  161.8110 C   0  0  0  0  0  0  0  0  0  0  0  0
  127.2400  -18.9610  161.3850 C   0  0  0  0  0  0  0  0  0  0  0  0
  1  2  1  0
  2  3  2  0
  3  4  1  0
  4  5  1  0
  5  6  2  0
  6  7  1  0
  7  8  2  0
  8  9  1  0
  9 10  1  0
 10 11  2  0
 11 12  1  0
 12 13  1  0
 12 14  1  0
 12 15  1  0
 11 16  1  0
 16 17  2  0
 17 18  1  0
 18 19  2  0
 18 20  1  0
 20 21  1  0
 21 22  2  0
 22 23  1  0
 23 24  2  0
 24 25  1  0
 25 26  1  0
 26 27  1  0
 27 28  1  0
 28 29  1  0
 29 30  1  0
 24 31  1  0
 31 32  2  0
 32 33  1  0
  8 34  1  0
 34 35  2  0
 35  2  1  0
 35  5  1  0
 17  9  1  0
 32 21  1  0
 30 25  1  0
M  END
$$$$
