IKMDFBPHZNJCSN-UHFFFAOYSA-N_4BDS_m7
     RDKit          3D

 23 25  0  0  0  0  0  0  0  0999 V2000
  135.6090  119.0700   40.2690 O   0  0  0  0  0  0  0  0  0  0  0  0
  135.8210  117.9270   40.6680 C   0  0  0  0  0  0  0  0  0  0  0  0
  137.1600  117.3140   40.5110 C   0  0  0  0  0  0  0  0  0  0  0  0
  138.1330  118.0780   39.8910 O   0  0  0  0  0  0  0  0  0  0  0  0
  137.3490  116.0590   40.9590 C   0  0  0  0  0  0  0  0  0  0  0  0
  138.6360  115.3390   40.8380 C   0  0  0  0  0  0  0  0  0  0  0  0
  139.6740  115.5210   41.7720 C   0  0  0  0  0  0  0  0  0  0  0  0
  140.8670  114.8130   41.6370 C   0  0  0  0  0  0  0  0  0  0  0  0
  141.9040  114.9660   42.5160 O   0  0  0  0  0  0  0  0  0  0  0  0
  141.0340  113.9150   40.5920 C   0  0  0  0  0  0  0  0  0  0  0  0
  142.2000  113.2130   40.4540 O   0  0  0  0  0  0  0  0  0  0  0  0
  140.0140  113.7210   39.6720 C   0  0  0  0  0  0  0  0  0  0  0  0
  140.1790  112.8360   38.6450 O   0  0  0  0  0  0  0  0  0  0  0  0
  138.8190  114.4190   39.7870 C   0  0  0  0  0  0  0  0  0  0  0  0
  136.3560  115.2940   41.5600 O   0  0  0  0  0  0  0  0  0  0  0  0
  135.1080  115.8360   41.7250 C   0  0  0  0  0  0  0  0  0  0  0  0
  134.1450  115.0390   42.3410 C   0  0  0  0  0  0  0  0  0  0  0  0
  132.8600  115.5380   42.5330 C   0  0  0  0  0  0  0  0  0  0  0  0
  131.9480  114.7240   43.1390 O   0  0  0  0  0  0  0  0  0  0  0  0
  132.5200  116.8240   42.1210 C   0  0  0  0  0  0  0  0  0  0  0  0
  133.4860  117.6180   41.5070 C   0  0  0  0  0  0  0  0  0  0  0  0
  133.0990  118.8720   41.1220 O   0  0  0  0  0  0  0  0  0  0  0  0
  134.7790  117.1240   41.3100 C   0  0  0  0  0  0  0  0  0  0  0  0
  1  2  2  0
  2  3  1  0
  3  4  1  0
  3  5  2  0
  5  6  1  0
  6  7  2  0
  7  8  1  0
  8  9  1  0
  8 10  2  0
 10 11  1  0
 10 12  1  0
 12 13  1  0
 12 14  2  0
  5 15  1  0
 15 16  1  0
 16 17  2  0
 17 18  1  0
 18 19  1  0
 18 20  2  0
 20 21  1  0
 21 22  1  0
 21 23  2  0
 23  2  1  0
 14  6  1  0
 23 16  1  0
M  END
$$$$
