IKMZBKGFXVMTRE-UHFFFAOYSA-N_4JT6_m7
     RDKit          3D

 31 34  0  0  0  0  0  0  0  0999 V2000
   49.7280   -1.2240  -47.9150 C   0  0  0  0  0  0  0  0  0  0  0  0
   51.0270   -0.4850  -48.0000 C   0  0  0  0  0  0  0  0  0  0  0  0
   51.4490   -0.1190  -49.2070 N   0  0  0  0  0  0  0  0  0  0  0  0
   52.5870    0.5580  -49.2290 C   0  0  0  0  0  0  0  0  0  0  0  0
   53.0640    0.9420  -50.4470 N   0  0  0  0  0  0  0  0  0  0  0  0
   53.2970    0.8850  -48.1610 N   0  0  0  0  0  0  0  0  0  0  0  0
   52.7940    0.4920  -46.9880 C   0  0  0  0  0  0  0  0  0  0  0  0
   53.5570    0.8330  -45.7660 C   0  0  0  0  0  0  0  0  0  0  0  0
   54.9360    1.1270  -45.8660 C   0  0  0  0  0  0  0  0  0  0  0  0
   55.6930    1.4450  -44.7450 C   0  0  0  0  0  0  0  0  0  0  0  0
   55.0500    1.4670  -43.5290 C   0  0  0  0  0  0  0  0  0  0  0  0
   53.7380    1.2010  -43.3760 N   0  0  0  0  0  0  0  0  0  0  0  0
   52.9930    0.8820  -44.4680 C   0  0  0  0  0  0  0  0  0  0  0  0
   51.6190    0.6280  -44.2800 N   0  0  0  0  0  0  0  0  0  0  0  0
   50.9200   -0.4240  -43.6760 C   0  0  0  0  0  0  0  0  0  0  0  0
   49.5270   -0.4500  -43.7620 C   0  0  0  0  0  0  0  0  0  0  0  0
   48.7870   -1.4800  -43.1710 C   0  0  0  0  0  0  0  0  0  0  0  0
   49.4620   -2.4780  -42.4900 C   0  0  0  0  0  0  0  0  0  0  0  0
   48.8520   -3.5620  -41.8590 N   0  0  0  0  0  0  0  0  0  0  0  0
   48.7320   -4.8610  -42.3050 C   0  0  0  0  0  0  0  0  0  0  0  0
   49.1510   -5.2650  -43.3830 O   0  0  0  0  0  0  0  0  0  0  0  0
   48.0720   -5.6380  -41.3650 N   0  0  0  0  0  0  0  0  0  0  0  0
   47.7610   -7.0130  -41.4370 C   0  0  0  0  0  0  0  0  0  0  0  0
   48.5080   -8.0200  -40.8240 C   0  0  0  0  0  0  0  0  0  0  0  0
   48.1270   -9.3610  -40.9450 C   0  0  0  0  0  0  0  0  0  0  0  0
   46.9940   -9.7050  -41.6770 C   0  0  0  0  0  0  0  0  0  0  0  0
   46.2400   -8.7100  -42.2920 C   0  0  0  0  0  0  0  0  0  0  0  0
   46.6220   -7.3710  -42.1720 C   0  0  0  0  0  0  0  0  0  0  0  0
   50.8050   -2.4900  -42.3760 N   0  0  0  0  0  0  0  0  0  0  0  0
   51.4950   -1.4730  -42.9660 C   0  0  0  0  0  0  0  0  0  0  0  0
   51.6570   -0.2020  -46.8570 N   0  0  0  0  0  0  0  0  0  0  0  0
  1  2  1  0
  2  3  2  0
  3  4  1  0
  4  5  1  0
  4  6  2  0
  6  7  1  0
  7  8  1  0
  8  9  2  0
  9 10  1  0
 10 11  2  0
 11 12  1  0
 12 13  2  0
 13 14  1  0
 14 15  1  0
 15 16  2  0
 16 17  1  0
 17 18  2  0
 18 19  1  0
 19 20  1  0
 20 21  2  0
 20 22  1  0
 22 23  1  0
 23 24  2  0
 24 25  1  0
 25 26  2  0
 26 27  1  0
 27 28  2  0
 18 29  1  0
 29 30  2  0
  7 31  2  0
 31  2  1  0
 13  8  1  0
 30 15  1  0
 28 23  1  0
M  END
$$$$
