IPFYCMPFMMRMFR-UHFFFAOYSA-N_2JKH_m4
     RDKit          3D

 36 39  0  0  0  0  0  0  0  0999 V2000
   -4.2260   14.5760   17.4860 C   0  0  0  0  0  0  0  0  0  0  0  0
   -3.6220   15.3470   18.6430 C   0  0  0  0  0  0  0  0  0  0  0  0
   -2.7520   14.4650   19.3620 O   0  0  0  0  0  0  0  0  0  0  0  0
   -3.0430   14.3540   20.6970 C   0  0  0  0  0  0  0  0  0  0  0  0
   -3.4870   15.2700   21.3790 O   0  0  0  0  0  0  0  0  0  0  0  0
   -2.6850   12.9460   21.2010 C   0  0  1  0  0  0  0  0  0  0  0  0
   -2.7030   12.9700   22.6360 O   0  0  0  0  0  0  0  0  0  0  0  0
   -2.0080   11.9890   23.2840 C   0  0  0  0  0  0  0  0  0  0  0  0
   -0.9030   11.3170   22.7700 C   0  0  0  0  0  0  0  0  0  0  0  0
   -0.2810   10.3180   23.5240 C   0  0  0  0  0  0  0  0  0  0  0  0
   -0.7690    9.9770   24.7920 C   0  0  0  0  0  0  0  0  0  0  0  0
   -1.9160   10.6130   25.2950 C   0  0  0  0  0  0  0  0  0  0  0  0
   -2.5240   11.6210   24.5290 C   0  0  0  0  0  0  0  0  0  0  0  0
   -2.5120   10.2560   26.6430 C   0  0  0  0  0  0  0  0  0  0  0  0
   -1.8640    9.1070   27.2820 N   0  0  0  0  0  0  0  0  0  0  0  0
   -2.5190    8.3420   28.1990 C   0  0  0  0  0  0  0  0  0  0  0  0
   -3.7100    8.5290   28.6510 N   0  0  0  0  0  0  0  0  0  0  0  0
   -1.8580    7.2700   28.6630 N   0  0  0  0  0  0  0  0  0  0  0  0
   -0.4140    9.0420   27.0820 C   0  0  0  0  0  0  0  0  0  0  0  0
   -0.1050    8.8880   25.5930 C   0  0  0  0  0  0  0  0  0  0  0  0
   -3.6660   11.9070   20.6730 C   0  0  0  0  0  0  0  0  0  0  0  0
   -5.0130   12.2260   20.4510 C   0  0  0  0  0  0  0  0  0  0  0  0
   -5.8980   11.2640   19.9570 C   0  0  0  0  0  0  0  0  0  0  0  0
   -5.4450    9.9820   19.6500 C   0  0  0  0  0  0  0  0  0  0  0  0
   -6.3920    9.1120   19.1860 O   0  0  0  0  0  0  0  0  0  0  0  0
   -5.9940    8.2530   18.1030 C   0  0  0  0  0  0  0  0  0  0  0  0
   -7.2830    7.7500   17.4350 C   0  0  0  0  0  0  0  0  0  0  0  0
   -8.0090    8.8770   16.6960 C   0  0  0  0  0  0  0  0  0  0  0  0
   -7.0790    9.4760   15.7330 N   0  0  0  0  0  0  0  0  0  0  0  0
   -7.2050    9.3250   14.3630 C   0  0  0  0  0  0  0  0  0  0  0  0
   -8.5340    8.9000   13.7700 C   0  0  0  0  0  0  0  0  0  0  0  0
   -6.2530    9.5010   13.5080 N   0  0  0  0  0  0  0  0  0  0  0  0
   -5.9300   10.1020   16.3890 C   0  0  0  0  0  0  0  0  0  0  0  0
   -5.1210    9.0150   17.0920 C   0  0  0  0  0  0  0  0  0  0  0  0
   -4.1130    9.6470   19.8790 C   0  0  0  0  0  0  0  0  0  0  0  0
   -3.2270   10.6060   20.3800 C   0  0  0  0  0  0  0  0  0  0  0  0
  1  2  1  0
  2  3  1  0
  3  4  1  0
  4  5  2  0
  4  6  1  0
  6  7  1  1
  7  8  1  0
  8  9  2  0
  9 10  1  0
 10 11  2  0
 11 12  1  0
 12 13  2  0
 12 14  1  0
 14 15  1  0
 15 16  1  0
 16 17  2  3
 16 18  1  0
 15 19  1  0
 19 20  1  0
  6 21  1  0
 21 22  2  0
 22 23  1  0
 23 24  2  0
 24 25  1  0
 25 26  1  0
 26 27  1  0
 27 28  1  0
 28 29  1  0
 29 30  1  0
 30 31  1  0
 30 32  2  3
 29 33  1  0
 33 34  1  0
 24 35  1  0
 35 36  2  0
 13  8  1  0
 36 21  1  0
 20 11  1  0
 34 26  1  0
M  END
$$$$
