IPWXWKUTJBMKOZ-UHFFFAOYSA-N_4JT6_m9
     RDKit          3D

 27 30  0  0  0  0  0  0  0  0999 V2000
   52.8780    0.0770  -51.6010 C   0  0  0  0  0  0  0  0  0  0  0  0
   51.7110    0.5930  -50.7800 C   0  0  0  0  0  0  0  0  0  0  0  0
   52.1200    0.9540  -49.4380 N   0  0  0  0  0  0  0  0  0  0  0  0
   51.9670    0.0890  -48.3750 C   0  0  0  0  0  0  0  0  0  0  0  0
   51.4730   -1.0240  -48.5080 O   0  0  0  0  0  0  0  0  0  0  0  0
   52.4330    0.6500  -47.2060 N   0  0  0  0  0  0  0  0  0  0  0  0
   52.4340    0.0820  -45.9160 C   0  0  0  0  0  0  0  0  0  0  0  0
   53.5690   -0.0490  -45.1210 C   0  0  0  0  0  0  0  0  0  0  0  0
   53.4830   -0.6290  -43.8450 C   0  0  0  0  0  0  0  0  0  0  0  0
   52.2640   -1.0960  -43.3220 C   0  0  0  0  0  0  0  0  0  0  0  0
   52.1770   -1.7060  -41.9760 C   0  0  0  0  0  0  0  0  0  0  0  0
   51.3020   -2.7140  -41.8140 N   0  0  0  0  0  0  0  0  0  0  0  0
   51.1840   -3.2950  -40.5980 C   0  0  0  0  0  0  0  0  0  0  0  0
   50.2090   -4.3810  -40.4680 C   0  0  0  0  0  0  0  0  0  0  0  0
   50.5640   -5.6530  -40.7280 C   0  0  0  0  0  0  0  0  0  0  0  0
   49.5920   -6.7950  -40.6860 C   0  0  0  0  0  0  0  0  0  0  0  0
   48.3300   -6.4280  -40.1200 O   0  0  0  0  0  0  0  0  0  0  0  0
   47.8560   -5.1820  -40.6370 C   0  0  0  0  0  0  0  0  0  0  0  0
   48.7710   -4.0510  -40.1680 C   0  0  0  0  0  0  0  0  0  0  0  0
   51.9860   -2.8540  -39.5500 C   0  0  0  0  0  0  0  0  0  0  0  0
   52.1420   -3.3790  -37.9170 S   0  0  0  0  0  0  0  0  0  0  0  0
   53.3370   -2.2140  -37.5660 C   0  0  0  0  0  0  0  0  0  0  0  0
   53.6330   -1.4400  -38.6630 C   0  0  0  0  0  0  0  0  0  0  0  0
   52.8670   -1.8050  -39.8100 C   0  0  0  0  0  0  0  0  0  0  0  0
   52.9730   -1.2100  -41.0200 N   0  0  0  0  0  0  0  0  0  0  0  0
   51.1300   -0.9540  -44.1420 C   0  0  0  0  0  0  0  0  0  0  0  0
   51.2120   -0.3760  -45.4160 C   0  0  0  0  0  0  0  0  0  0  0  0
  1  2  1  0
  2  3  1  0
  3  4  1  0
  4  5  2  0
  4  6  1  0
  6  7  1  0
  7  8  2  0
  8  9  1  0
  9 10  2  0
 10 11  1  0
 11 12  2  0
 12 13  1  0
 13 14  1  0
 14 15  2  0
 15 16  1  0
 16 17  1  0
 17 18  1  0
 18 19  1  0
 13 20  2  0
 20 21  1  0
 21 22  1  0
 22 23  2  0
 23 24  1  0
 24 25  2  0
 10 26  1  0
 26 27  2  0
 27  7  1  0
 25 11  1  0
 19 14  1  0
 24 20  1  0
M  END
$$$$
