IRSFLNXJVJKMDT-UHFFFAOYSA-N_5U3Q_m6
     RDKit          3D

 44 48  0  0  0  0  0  0  0  0999 V2000
   35.5600  -35.7320  100.4750 C   0  0  0  0  0  0  0  0  0  0  0  0
   36.1210  -36.1180  101.8340 C   0  0  0  0  0  0  0  0  0  0  0  0
   37.4300  -36.7280  101.7150 N   0  0  0  0  0  0  0  0  0  0  0  0
   37.9220  -37.8420  102.2980 C   0  0  0  0  0  0  0  0  0  0  0  0
   37.0940  -38.6520  103.2570 C   0  0  0  0  0  0  0  0  0  0  0  0
   36.6530  -37.9050  104.5170 C   0  0  0  0  0  0  0  0  0  0  0  0
   36.8510  -38.6710  105.8310 C   0  0  0  0  0  0  0  0  0  0  0  0
   38.2900  -38.7980  106.2650 C   0  0  0  0  0  0  0  0  0  0  0  0
   38.6920  -38.3930  107.5390 C   0  0  0  0  0  0  0  0  0  0  0  0
   40.0280  -38.5170  107.9320 C   0  0  0  0  0  0  0  0  0  0  0  0
   41.0090  -39.0450  107.0730 C   0  0  0  0  0  0  0  0  0  0  0  0
   42.4180  -39.1540  107.5160 C   0  0  0  0  0  0  0  0  0  0  0  0
   42.7920  -39.5140  108.8130 C   0  0  0  0  0  0  0  0  0  0  0  0
   44.1460  -39.5900  109.1500 C   0  0  0  0  0  0  0  0  0  0  0  0
   45.1040  -39.3050  108.1880 C   0  0  0  0  0  0  0  0  0  0  0  0
   46.4920  -39.3060  108.5080 N   0  0  0  0  0  0  0  0  0  0  0  0
   47.5000  -40.4190  107.7280 S   0  0  0  0  0  0  0  0  0  0  0  0
   47.9690  -39.8490  106.4820 O   0  0  0  0  0  0  0  0  0  0  0  0
   48.4260  -40.8910  108.7350 O   0  0  0  0  0  0  0  0  0  0  0  0
   46.3960  -41.7600  107.3460 C   0  0  0  0  0  0  0  0  0  0  0  0
   46.0250  -42.6540  108.3560 C   0  0  0  0  0  0  0  0  0  0  0  0
   45.1620  -43.7070  108.0540 C   0  0  0  0  0  0  0  0  0  0  0  0
   44.6860  -43.8700  106.7520 C   0  0  0  0  0  0  0  0  0  0  0  0
   45.0740  -42.9850  105.7440 C   0  0  0  0  0  0  0  0  0  0  0  0
   45.9380  -41.9300  106.0360 C   0  0  0  0  0  0  0  0  0  0  0  0
   44.6600  -38.9470  106.9230 C   0  0  0  0  0  0  0  0  0  0  0  0
   43.3540  -38.8660  106.5730 N   0  0  0  0  0  0  0  0  0  0  0  0
   40.5860  -39.4400  105.7920 C   0  0  0  0  0  0  0  0  0  0  0  0
   39.2490  -39.3220  105.3940 C   0  0  0  0  0  0  0  0  0  0  0  0
   39.1560  -38.1160  101.9830 N   0  0  0  0  0  0  0  0  0  0  0  0
   39.5060  -37.1120  101.1110 N   0  0  0  0  0  0  0  0  0  0  0  0
   40.8230  -36.9830  100.5370 C   0  0  0  0  0  0  0  0  0  0  0  0
   41.6700  -38.2080  100.7840 C   0  0  0  0  0  0  0  0  0  0  0  0
   41.9790  -39.0820   99.7400 C   0  0  0  0  0  0  0  0  0  0  0  0
   42.7480  -40.2260   99.9740 C   0  0  0  0  0  0  0  0  0  0  0  0
   43.2270  -40.5410  101.2590 C   0  0  0  0  0  0  0  0  0  0  0  0
   44.0720  -41.8080  101.4790 C   0  0  0  0  0  0  0  0  0  0  0  0
   44.5680  -42.3370  100.1150 C   0  0  0  0  0  0  0  0  0  0  0  0
   45.3180  -41.5830  102.3630 C   0  0  0  0  0  0  0  0  0  0  0  0
   43.2160  -42.8960  102.1640 C   0  0  0  0  0  0  0  0  0  0  0  0
   42.8970  -39.6590  102.3020 C   0  0  0  0  0  0  0  0  0  0  0  0
   42.1270  -38.5130  102.0690 C   0  0  0  0  0  0  0  0  0  0  0  0
   38.4440  -36.2300  100.9330 C   0  0  0  0  0  0  0  0  0  0  0  0
   38.4130  -35.2310  100.2310 O   0  0  0  0  0  0  0  0  0  0  0  0
  1  2  1  0
  2  3  1  0
  3  4  1  0
  4  5  1  0
  5  6  1  0
  6  7  1  0
  7  8  1  0
  8  9  2  0
  9 10  1  0
 10 11  2  0
 11 12  1  0
 12 13  2  0
 13 14  1  0
 14 15  2  0
 15 16  1  0
 16 17  1  0
 17 18  2  0
 17 19  2  0
 17 20  1  0
 20 21  2  0
 21 22  1  0
 22 23  2  0
 23 24  1  0
 24 25  2  0
 15 26  1  0
 26 27  2  0
 11 28  1  0
 28 29  2  0
  4 30  2  0
 30 31  1  0
 31 32  1  0
 32 33  1  0
 33 34  2  0
 34 35  1  0
 35 36  2  0
 36 37  1  0
 37 38  1  0
 37 39  1  0
 37 40  1  0
 36 41  1  0
 41 42  2  0
 31 43  1  0
 43 44  2  0
 43  3  1  0
 29  8  1  0
 42 33  1  0
 27 12  1  0
 25 20  1  0
M  END
$$$$
