IRTDIKMSKMREGO-OAHLLOKOSA-N_4L23_m8
     RDKit          3D

 30 33  0  0  0  0  0  0  0  0999 V2000
   31.4190   47.6260   47.2210 C   0  0  0  0  0  0  0  0  0  0  0  0
   31.4730   47.2530   45.7710 C   0  0  0  0  0  0  0  0  0  0  0  0
   32.5080   47.8500   44.9610 C   0  0  0  0  0  0  0  0  0  0  0  0
   32.6350   47.5790   43.6500 C   0  0  0  0  0  0  0  0  0  0  0  0
   33.6990   48.1480   42.7330 C   0  0  1  0  0  0  0  0  0  0  0  0
   34.4100   49.3250   43.4100 C   0  0  0  0  0  0  0  0  0  0  0  0
   34.7010   47.1390   42.3980 N   0  0  0  0  0  0  0  0  0  0  0  0
   35.9440   47.3580   41.8200 C   0  0  0  0  0  0  0  0  0  0  0  0
   37.0890   47.5860   42.6020 C   0  0  0  0  0  0  0  0  0  0  0  0
   38.3470   47.7980   42.0260 C   0  0  0  0  0  0  0  0  0  0  0  0
   38.4930   47.7850   40.6450 C   0  0  0  0  0  0  0  0  0  0  0  0
   37.3800   47.5630   39.8390 C   0  0  0  0  0  0  0  0  0  0  0  0
   36.1110   47.3500   40.4110 C   0  0  0  0  0  0  0  0  0  0  0  0
   34.9360   47.1270   39.5190 C   0  0  0  0  0  0  0  0  0  0  0  0
   34.5170   47.8910   38.6640 O   0  0  0  0  0  0  0  0  0  0  0  0
   34.3230   45.9470   39.7330 O   0  0  0  0  0  0  0  0  0  0  0  0
   31.6610   46.6120   43.0270 C   0  0  0  0  0  0  0  0  0  0  0  0
   31.7660   46.3300   41.7640 N   0  0  0  0  0  0  0  0  0  0  0  0
   30.8910   45.4570   41.1700 C   0  0  0  0  0  0  0  0  0  0  0  0
   31.0360   45.1820   39.8050 N   0  0  0  0  0  0  0  0  0  0  0  0
   31.1660   43.8330   39.2200 C   0  0  0  0  0  0  0  0  0  0  0  0
   30.6810   43.8180   37.7630 C   0  0  0  0  0  0  0  0  0  0  0  0
   31.4040   44.7090   36.9050 O   0  0  0  0  0  0  0  0  0  0  0  0
   31.8730   45.8830   37.5820 C   0  0  0  0  0  0  0  0  0  0  0  0
   31.0360   46.2740   38.8080 C   0  0  0  0  0  0  0  0  0  0  0  0
   29.9220   44.8790   41.8970 C   0  0  0  0  0  0  0  0  0  0  0  0
   29.7760   45.1770   43.3270 C   0  0  0  0  0  0  0  0  0  0  0  0
   28.8710   44.6250   43.9530 O   0  0  0  0  0  0  0  0  0  0  0  0
   30.6910   46.0690   43.8540 N   0  0  0  0  0  0  0  0  0  0  0  0
   30.6150   46.3980   45.1990 C   0  0  0  0  0  0  0  0  0  0  0  0
  1  2  1  0
  2  3  1  0
  3  4  2  0
  4  5  1  0
  5  6  1  1
  5  7  1  0
  7  8  1  0
  8  9  2  0
  9 10  1  0
 10 11  2  0
 11 12  1  0
 12 13  2  0
 13 14  1  0
 14 15  2  0
 14 16  1  0
  4 17  1  0
 17 18  2  0
 18 19  1  0
 19 20  1  0
 20 21  1  0
 21 22  1  0
 22 23  1  0
 23 24  1  0
 24 25  1  0
 19 26  2  0
 26 27  1  0
 27 28  2  0
 27 29  1  0
 29 30  1  0
 30  2  2  0
 13  8  1  0
 29 17  1  0
 25 20  1  0
M  END
$$$$
