ISEMTHSDRXTHAL-UHFFFAOYSA-N_5U3Q_m7
     RDKit          3D

 27 30  0  0  0  0  0  0  0  0999 V2000
   49.0920  -39.2670  106.2940 O   0  0  0  0  0  0  0  0  0  0  0  0
   49.3150  -38.9090  107.4380 C   0  0  0  0  0  0  0  0  0  0  0  0
   50.0180  -37.7770  107.6620 O   0  0  0  0  0  0  0  0  0  0  0  0
   48.9210  -39.5860  108.7280 C   0  0  0  0  0  0  0  0  0  0  0  0
   47.6000  -40.3000  108.6360 C   0  0  0  0  0  0  0  0  0  0  0  0
   47.4750  -41.6660  108.4710 C   0  0  0  0  0  0  0  0  0  0  0  0
   45.8540  -42.1800  108.4120 S   0  0  0  0  0  0  0  0  0  0  0  0
   45.2600  -40.5760  108.6030 C   0  0  0  0  0  0  0  0  0  0  0  0
   43.9030  -40.1830  108.6500 C   0  0  0  0  0  0  0  0  0  0  0  0
   43.5940  -38.8310  108.8100 C   0  0  0  0  0  0  0  0  0  0  0  0
   42.3340  -38.2980  108.8710 O   0  0  0  0  0  0  0  0  0  0  0  0
   41.8640  -37.5950  107.7140 C   0  0  0  0  0  0  0  0  0  0  0  0
   41.8980  -38.4610  106.4950 C   0  0  0  0  0  0  0  0  0  0  0  0
   42.8830  -38.5300  105.4820 C   0  0  0  0  0  0  0  0  0  0  0  0
   42.4250  -39.4880  104.6070 C   0  0  0  0  0  0  0  0  0  0  0  0
   42.9160  -40.0660  103.3600 C   0  0  0  0  0  0  0  0  0  0  0  0
   43.3190  -41.4100  103.2860 C   0  0  0  0  0  0  0  0  0  0  0  0
   43.7890  -41.9560  102.0850 C   0  0  0  0  0  0  0  0  0  0  0  0
   43.8600  -41.1620  100.9450 C   0  0  0  0  0  0  0  0  0  0  0  0
   44.4370  -41.8300   99.4690 Cl  0  0  0  0  0  0  0  0  0  0  0  0
   43.4670  -39.8270  100.9950 C   0  0  0  0  0  0  0  0  0  0  0  0
   42.9970  -39.2830  102.1960 C   0  0  0  0  0  0  0  0  0  0  0  0
   41.2350  -39.9620  105.0770 O   0  0  0  0  0  0  0  0  0  0  0  0
   40.9030  -39.3240  106.2570 N   0  0  0  0  0  0  0  0  0  0  0  0
   44.6180  -37.8970  108.9190 C   0  0  0  0  0  0  0  0  0  0  0  0
   45.9600  -38.2900  108.8720 C   0  0  0  0  0  0  0  0  0  0  0  0
   46.3050  -39.6540  108.7120 C   0  0  0  0  0  0  0  0  0  0  0  0
  1  2  2  0
  2  3  1  0
  2  4  1  0
  4  5  1  0
  5  6  2  0
  6  7  1  0
  7  8  1  0
  8  9  2  0
  9 10  1  0
 10 11  1  0
 11 12  1  0
 12 13  1  0
 13 14  1  0
 14 15  2  0
 15 16  1  0
 16 17  2  0
 17 18  1  0
 18 19  2  0
 19 20  1  0
 19 21  1  0
 21 22  2  0
 15 23  1  0
 23 24  1  0
 10 25  2  0
 25 26  1  0
 26 27  2  0
 27  5  1  0
 27  8  1  0
 24 13  2  0
 22 16  1  0
M  END
$$$$
