ISEMTHSDRXTHAL-UHFFFAOYSA-N_6LXA_m8
     RDKit          3D

 27 30  0  0  0  0  0  0  0  0999 V2000
   15.6870   13.1930   -1.3970 O   0  0  0  0  0  0  0  0  0  0  0  0
   14.5610   13.6280   -1.5660 C   0  0  0  0  0  0  0  0  0  0  0  0
   13.4930   12.8800   -1.2100 O   0  0  0  0  0  0  0  0  0  0  0  0
   14.1430   14.9470   -2.1690 C   0  0  0  0  0  0  0  0  0  0  0  0
   14.0500   14.9020   -3.6690 C   0  0  0  0  0  0  0  0  0  0  0  0
   15.0340   15.3770   -4.5150 C   0  0  0  0  0  0  0  0  0  0  0  0
   14.6470   15.1780   -6.1590 S   0  0  0  0  0  0  0  0  0  0  0  0
   13.1330   14.4470   -5.7920 C   0  0  0  0  0  0  0  0  0  0  0  0
   12.1780   13.9790   -6.7230 C   0  0  0  0  0  0  0  0  0  0  0  0
   10.9940   13.4090   -6.2520 C   0  0  0  0  0  0  0  0  0  0  0  0
    9.9780   12.9150   -7.0260 O   0  0  0  0  0  0  0  0  0  0  0  0
   10.3320   12.3880   -8.3110 C   0  0  0  0  0  0  0  0  0  0  0  0
   10.1110   10.9110   -8.3780 C   0  0  0  0  0  0  0  0  0  0  0  0
   10.6030    9.9810   -9.3240 C   0  0  0  0  0  0  0  0  0  0  0  0
   10.1060    8.7650   -8.9170 C   0  0  0  0  0  0  0  0  0  0  0  0
   10.2020    7.3930   -9.4080 C   0  0  0  0  0  0  0  0  0  0  0  0
   10.3550    7.1150  -10.7760 C   0  0  0  0  0  0  0  0  0  0  0  0
   10.4450    5.7970  -11.2380 C   0  0  0  0  0  0  0  0  0  0  0  0
   10.3820    4.7420  -10.3340 C   0  0  0  0  0  0  0  0  0  0  0  0
   10.4920    3.1210  -10.8990 Cl  0  0  0  0  0  0  0  0  0  0  0  0
   10.2300    4.9920   -8.9740 C   0  0  0  0  0  0  0  0  0  0  0  0
   10.1400    6.3120   -8.5140 C   0  0  0  0  0  0  0  0  0  0  0  0
    9.3620    8.9620   -7.7900 O   0  0  0  0  0  0  0  0  0  0  0  0
    9.3640   10.3010   -7.4500 N   0  0  0  0  0  0  0  0  0  0  0  0
   10.7720   13.3110   -4.8830 C   0  0  0  0  0  0  0  0  0  0  0  0
   11.7200   13.7750   -3.9640 C   0  0  0  0  0  0  0  0  0  0  0  0
   12.9310   14.3570   -4.4120 C   0  0  0  0  0  0  0  0  0  0  0  0
  1  2  2  0
  2  3  1  0
  2  4  1  0
  4  5  1  0
  5  6  2  0
  6  7  1  0
  7  8  1  0
  8  9  2  0
  9 10  1  0
 10 11  1  0
 11 12  1  0
 12 13  1  0
 13 14  1  0
 14 15  2  0
 15 16  1  0
 16 17  2  0
 17 18  1  0
 18 19  2  0
 19 20  1  0
 19 21  1  0
 21 22  2  0
 15 23  1  0
 23 24  1  0
 10 25  2  0
 25 26  1  0
 26 27  2  0
 27  5  1  0
 27  8  1  0
 24 13  2  0
 22 16  1  0
M  END
$$$$
