ITVPJECOOYHMHF-SECBINFHSA-N_8BXH_m2
     RDKit          3D

 20 22  0  0  0  0  0  0  0  0999 V2000
  -13.8990   16.9210   21.6660 C   0  0  0  0  0  0  0  0  0  0  0  0
  -14.2900   16.3610   20.3890 N   0  0  0  0  0  0  0  0  0  0  0  0
  -14.3160   14.9780   20.1950 C   0  0  0  0  0  0  0  0  0  0  0  0
  -15.5340   14.3580   20.2480 N   0  0  0  0  0  0  0  0  0  0  0  0
  -15.6310   13.0300   20.0530 C   0  0  0  0  0  0  0  0  0  0  0  0
  -14.6460   12.1630   19.8000 N   0  0  0  0  0  0  0  0  0  0  0  0
  -13.4590   12.7810   19.7630 C   0  0  0  0  0  0  0  0  0  0  0  0
  -12.2800   12.1280   19.5330 N   0  0  0  0  0  0  0  0  0  0  0  0
  -11.2430   13.0190   19.5700 C   0  0  0  0  0  0  0  0  0  0  0  0
  -11.7780   14.2640   19.8250 C   0  0  0  0  0  0  0  0  0  0  0  0
  -13.1990   14.1350   19.9430 C   0  0  0  0  0  0  0  0  0  0  0  0
  -14.6890   17.2020   19.2390 C   0  0  2  0  0  0  0  0  0  0  0  0
  -13.5910   17.2690   18.1850 C   0  0  0  0  0  0  0  0  0  0  0  0
  -12.6980   18.4080   18.6490 C   0  0  0  0  0  0  0  0  0  0  0  0
  -13.5830   19.3560   19.3810 N   0  0  0  0  0  0  0  0  0  0  0  0
  -13.6510   20.9530   18.8330 S   0  0  0  0  0  0  0  0  0  0  0  0
  -15.4050   21.1990   18.6410 C   0  0  0  0  0  0  0  0  0  0  0  0
  -13.1690   21.8040   19.8980 O   0  0  0  0  0  0  0  0  0  0  0  0
  -13.0500   20.9840   17.5170 O   0  0  0  0  0  0  0  0  0  0  0  0
  -14.9200   18.6940   19.5390 C   0  0  0  0  0  0  0  0  0  0  0  0
  1  2  1  0
  2  3  1  0
  3  4  2  0
  4  5  1  0
  5  6  2  0
  6  7  1  0
  7  8  1  0
  8  9  1  0
  9 10  2  0
 10 11  1  0
 12  2  1  1
 12 13  1  0
 13 14  1  0
 14 15  1  0
 15 16  1  0
 16 17  1  0
 16 18  2  0
 16 19  2  0
 15 20  1  0
 11  3  1  0
 20 12  1  0
 11  7  2  0
M  END
$$$$
