ITVPJECOOYHMHF-SECBINFHSA-N_6N7A_m5
     RDKit          3D

 20 22  0  0  0  0  0  0  0  0999 V2000
    5.9860  -24.0560   23.7740 C   0  0  0  0  0  0  0  0  0  0  0  0
    5.4130  -24.7350   22.6300 N   0  0  0  0  0  0  0  0  0  0  0  0
    5.2040  -26.1160   22.6530 C   0  0  0  0  0  0  0  0  0  0  0  0
    6.1620  -26.8880   23.2500 N   0  0  0  0  0  0  0  0  0  0  0  0
    6.0140  -28.2230   23.3220 C   0  0  0  0  0  0  0  0  0  0  0  0
    5.0000  -28.9630   22.8610 N   0  0  0  0  0  0  0  0  0  0  0  0
    4.0770  -28.1960   22.2690 C   0  0  0  0  0  0  0  0  0  0  0  0
    2.9390  -28.6970   21.7000 N   0  0  0  0  0  0  0  0  0  0  0  0
    2.2010  -27.6780   21.1650 C   0  0  0  0  0  0  0  0  0  0  0  0
    2.8860  -26.5050   21.4020 C   0  0  0  0  0  0  0  0  0  0  0  0
    4.0870  -26.8140   22.1180 C   0  0  0  0  0  0  0  0  0  0  0  0
    5.0140  -24.0210   21.3980 C   0  0  2  0  0  0  0  0  0  0  0  0
    6.0640  -24.1610   20.3030 C   0  0  0  0  0  0  0  0  0  0  0  0
    7.0450  -23.0340   20.5810 C   0  0  0  0  0  0  0  0  0  0  0  0
    6.2560  -21.9450   21.2180 N   0  0  0  0  0  0  0  0  0  0  0  0
    6.2600  -20.4290   20.4720 S   0  0  0  0  0  0  0  0  0  0  0  0
    6.1880  -19.3320   21.8730 C   0  0  0  0  0  0  0  0  0  0  0  0
    7.5360  -20.2680   19.8110 O   0  0  0  0  0  0  0  0  0  0  0  0
    5.0170  -20.3030   19.7420 O   0  0  0  0  0  0  0  0  0  0  0  0
    4.8890  -22.4910   21.5120 C   0  0  0  0  0  0  0  0  0  0  0  0
  1  2  1  0
  2  3  1  0
  3  4  2  0
  4  5  1  0
  5  6  2  0
  6  7  1  0
  7  8  1  0
  8  9  1  0
  9 10  2  0
 10 11  1  0
 12  2  1  1
 12 13  1  0
 13 14  1  0
 14 15  1  0
 15 16  1  0
 16 17  1  0
 16 18  2  0
 16 19  2  0
 15 20  1  0
 11  3  1  0
 20 12  1  0
 11  7  2  0
M  END
$$$$
