IVKKCJGVURSPCR-UHFFFAOYSA-N_4JT6_m1
     RDKit          3D

 29 32  0  0  0  0  0  0  0  0999 V2000
   45.1450   -6.0440  -50.5470 C   0  0  0  0  0  0  0  0  0  0  0  0
   46.0920   -6.3580  -49.5350 O   0  0  0  0  0  0  0  0  0  0  0  0
   45.7440   -5.7530  -48.2880 C   0  0  0  0  0  0  0  0  0  0  0  0
   45.5790   -4.2470  -48.4970 C   0  0  0  0  0  0  0  0  0  0  0  0
   46.7610   -3.4910  -48.1530 N   0  0  0  0  0  0  0  0  0  0  0  0
   46.7430   -2.4370  -47.2700 C   0  0  0  0  0  0  0  0  0  0  0  0
   45.7440   -2.0640  -46.6660 O   0  0  0  0  0  0  0  0  0  0  0  0
   48.0550   -1.8100  -47.1180 C   0  0  0  0  0  0  0  0  0  0  0  0
   48.7110   -1.5520  -45.9290 C   0  0  0  0  0  0  0  0  0  0  0  0
   49.8970   -0.9760  -46.2830 N   0  0  0  0  0  0  0  0  0  0  0  0
   50.9570   -0.5390  -45.5200 C   0  0  0  0  0  0  0  0  0  0  0  0
   52.0270   -0.0200  -46.1520 C   0  0  0  0  0  0  0  0  0  0  0  0
   53.1870    0.4720  -45.3850 C   0  0  0  0  0  0  0  0  0  0  0  0
   54.4270    0.6470  -45.9700 C   0  0  0  0  0  0  0  0  0  0  0  0
   55.5280    1.0890  -45.3180 N   0  0  0  0  0  0  0  0  0  0  0  0
   55.3840    1.3540  -44.0180 C   0  0  0  0  0  0  0  0  0  0  0  0
   56.4760    1.8020  -43.3380 N   0  0  0  0  0  0  0  0  0  0  0  0
   54.2440    1.2080  -43.3360 N   0  0  0  0  0  0  0  0  0  0  0  0
   53.1760    0.7630  -44.0350 C   0  0  0  0  0  0  0  0  0  0  0  0
   52.0860    0.1100  -47.5320 N   0  0  0  0  0  0  0  0  0  0  0  0
   51.0900   -0.2850  -48.3040 C   0  0  0  0  0  0  0  0  0  0  0  0
   51.2310   -0.1080  -49.6820 N   0  0  0  0  0  0  0  0  0  0  0  0
   52.5030    0.2590  -50.3180 C   0  0  0  0  0  0  0  0  0  0  0  0
   52.5830   -0.2760  -51.7560 C   0  0  0  0  0  0  0  0  0  0  0  0
   51.4450    0.1080  -52.5340 O   0  0  0  0  0  0  0  0  0  0  0  0
   50.2540   -0.4260  -51.9410 C   0  0  0  0  0  0  0  0  0  0  0  0
   50.0460    0.1250  -50.5270 C   0  0  0  0  0  0  0  0  0  0  0  0
   49.9190   -0.8780  -47.6500 C   0  0  0  0  0  0  0  0  0  0  0  0
   48.8300   -1.3880  -48.1950 N   0  0  0  0  0  0  0  0  0  0  0  0
  1  2  1  0
  2  3  1  0
  3  4  1  0
  4  5  1  0
  5  6  1  0
  6  7  2  0
  6  8  1  0
  8  9  2  0
  9 10  1  0
 10 11  1  0
 11 12  2  0
 12 13  1  0
 13 14  2  0
 14 15  1  0
 15 16  2  0
 16 17  1  0
 16 18  1  0
 18 19  2  0
 12 20  1  0
 20 21  2  0
 21 22  1  0
 22 23  1  0
 23 24  1  0
 24 25  1  0
 25 26  1  0
 26 27  1  0
 21 28  1  0
 28 29  2  0
 29  8  1  0
 28 10  1  0
 19 13  1  0
 27 22  1  0
M  END
$$$$
