IVKKCJGVURSPCR-UHFFFAOYSA-N_4L23_m4
     RDKit          3D

 29 32  0  0  0  0  0  0  0  0999 V2000
   30.2410   41.9320   33.7140 C   0  0  0  0  0  0  0  0  0  0  0  0
   30.2510   41.7530   35.1240 O   0  0  0  0  0  0  0  0  0  0  0  0
   30.5290   42.9790   35.8040 C   0  0  0  0  0  0  0  0  0  0  0  0
   29.9080   42.9230   37.2010 C   0  0  0  0  0  0  0  0  0  0  0  0
   30.6250   43.7110   38.1760 N   0  0  0  0  0  0  0  0  0  0  0  0
   30.5140   43.5050   39.5310 C   0  0  0  0  0  0  0  0  0  0  0  0
   29.8350   42.6190   40.0380 O   0  0  0  0  0  0  0  0  0  0  0  0
   31.3070   44.4550   40.3100 C   0  0  0  0  0  0  0  0  0  0  0  0
   32.4740   45.0770   39.9060 C   0  0  0  0  0  0  0  0  0  0  0  0
   32.8410   45.8770   40.9510 N   0  0  0  0  0  0  0  0  0  0  0  0
   33.9000   46.7450   41.1010 C   0  0  0  0  0  0  0  0  0  0  0  0
   34.0040   47.4310   42.2550 C   0  0  0  0  0  0  0  0  0  0  0  0
   35.1220   48.3680   42.4740 C   0  0  0  0  0  0  0  0  0  0  0  0
   35.8310   48.9140   41.4210 C   0  0  0  0  0  0  0  0  0  0  0  0
   36.8690   49.7740   41.5570 N   0  0  0  0  0  0  0  0  0  0  0  0
   37.2200   50.0870   42.8050 C   0  0  0  0  0  0  0  0  0  0  0  0
   38.2600   50.9520   42.9720 N   0  0  0  0  0  0  0  0  0  0  0  0
   36.6260   49.6120   43.9040 N   0  0  0  0  0  0  0  0  0  0  0  0
   35.5970   48.7580   43.7100 C   0  0  0  0  0  0  0  0  0  0  0  0
   33.1020   47.2750   43.2980 N   0  0  0  0  0  0  0  0  0  0  0  0
   32.0780   46.4470   43.2040 C   0  0  0  0  0  0  0  0  0  0  0  0
   31.2260   46.3460   44.3060 N   0  0  0  0  0  0  0  0  0  0  0  0
   30.4520   45.1350   44.6130 C   0  0  0  0  0  0  0  0  0  0  0  0
   30.1890   45.0090   46.1210 C   0  0  0  0  0  0  0  0  0  0  0  0
   29.6000   46.1960   46.6650 O   0  0  0  0  0  0  0  0  0  0  0  0
   30.4870   47.3050   46.4720 C   0  0  0  0  0  0  0  0  0  0  0  0
   30.7380   47.5600   44.9830 C   0  0  0  0  0  0  0  0  0  0  0  0
   31.9190   45.7020   41.9510 C   0  0  0  0  0  0  0  0  0  0  0  0
   30.9650   44.8630   41.5950 N   0  0  0  0  0  0  0  0  0  0  0  0
  1  2  1  0
  2  3  1  0
  3  4  1  0
  4  5  1  0
  5  6  1  0
  6  7  2  0
  6  8  1  0
  8  9  2  0
  9 10  1  0
 10 11  1  0
 11 12  2  0
 12 13  1  0
 13 14  2  0
 14 15  1  0
 15 16  2  0
 16 17  1  0
 16 18  1  0
 18 19  2  0
 12 20  1  0
 20 21  2  0
 21 22  1  0
 22 23  1  0
 23 24  1  0
 24 25  1  0
 25 26  1  0
 26 27  1  0
 21 28  1  0
 28 29  2  0
 29  8  1  0
 28 10  1  0
 19 13  1  0
 27 22  1  0
M  END
$$$$
