IVMDAZCUUNYGAH-QPBASRLBSA-N_6N7A_m5
     RDKit          3D

 27 30  0  0  0  0  0  0  0  0999 V2000
    7.8210  -24.0470   21.3440 C   0  0  0  0  0  0  0  0  0  0  0  0
    6.7730  -24.3660   22.3110 N   0  0  0  0  0  0  0  0  0  0  0  0
    7.1080  -25.4540   23.1480 C   0  0  0  0  0  0  0  0  0  0  0  0
    8.1590  -25.3120   24.0080 N   0  0  0  0  0  0  0  0  0  0  0  0
    8.5270  -26.3420   24.7910 C   0  0  0  0  0  0  0  0  0  0  0  0
    7.9720  -27.5590   24.8660 N   0  0  0  0  0  0  0  0  0  0  0  0
    6.9250  -27.6640   24.0380 C   0  0  0  0  0  0  0  0  0  0  0  0
    6.1540  -28.7880   23.9250 N   0  0  0  0  0  0  0  0  0  0  0  0
    5.1440  -28.5690   23.0270 C   0  0  0  0  0  0  0  0  0  0  0  0
    5.2840  -27.2800   22.5530 C   0  0  0  0  0  0  0  0  0  0  0  0
    6.4310  -26.6970   23.1720 C   0  0  0  0  0  0  0  0  0  0  0  0
    5.5990  -23.5470   22.4060 C   0  0  1  0  0  0  0  0  0  0  0  0
    5.8410  -22.1190   22.9730 C   0  0  0  0  0  0  0  0  0  0  0  0
    4.8250  -21.6080   21.9280 C   0  0  1  0  0  0  0  0  0  0  0  0
    5.0730  -20.2610   21.3330 N   0  0  0  0  0  0  0  0  0  0  0  0
    4.3890  -18.8320   21.9440 S   0  0  0  0  0  0  0  0  0  0  0  0
    3.7610  -19.1900   23.1990 O   0  0  0  0  0  0  0  0  0  0  0  0
    5.4730  -17.8700   21.9200 O   0  0  0  0  0  0  0  0  0  0  0  0
    3.1270  -18.3630   20.7650 C   0  0  2  0  0  0  0  0  0  0  0  0
    3.4220  -18.7200   19.2910 C   0  0  0  0  0  0  0  0  0  0  0  0
    2.8650  -17.3230   18.8820 C   0  0  2  0  0  0  0  0  0  0  0  0
    1.3830  -17.3720   18.4940 C   0  0  0  0  0  0  0  0  0  0  0  0
    3.7320  -16.6220   17.8230 C   0  0  0  0  0  0  0  0  0  0  0  0
    2.9740  -15.6190   17.0610 C   0  0  0  0  0  0  0  0  0  0  0  0
    2.3690  -14.8320   16.4600 N   0  0  0  0  0  0  0  0  0  0  0  0
    3.1320  -16.8750   20.3520 C   0  0  0  0  0  0  0  0  0  0  0  0
    5.2290  -22.8300   21.0740 C   0  0  0  0  0  0  0  0  0  0  0  0
  1  2  1  0
  2  3  1  0
  3  4  2  0
  4  5  1  0
  5  6  2  0
  6  7  1  0
  7  8  1  0
  8  9  1  0
  9 10  2  0
 10 11  1  0
 12  2  1  6
 12 13  1  0
 13 14  1  0
 14 15  1  6
 15 16  1  0
 16 17  2  0
 16 18  2  0
 19 16  1  6
 19 20  1  0
 20 21  1  0
 21 22  1  1
 21 23  1  0
 23 24  1  0
 24 25  3  0
 21 26  1  0
 14 27  1  0
 11  3  1  0
 27 12  1  0
 11  7  2  0
 26 19  1  0
M  END
$$$$
