IWMNPLRLJRDNCG-UHFFFAOYSA-N_4BDS_m5
     RDKit          3D

 30 33  0  0  0  0  0  0  0  0999 V2000
  133.7900  119.0940   35.2510 N   0  0  0  0  0  0  0  0  0  0  0  0
  133.8760  118.0790   36.1840 C   0  0  0  0  0  0  0  0  0  0  0  0
  134.0060  116.7480   35.7750 C   0  0  0  0  0  0  0  0  0  0  0  0
  134.0780  115.7120   36.7120 C   0  0  0  0  0  0  0  0  0  0  0  0
  134.0120  116.0050   38.0720 C   0  0  0  0  0  0  0  0  0  0  0  0
  134.0880  114.9520   38.9480 O   0  0  0  0  0  0  0  0  0  0  0  0
  134.0210  115.2270   40.3060 C   0  0  0  0  0  0  0  0  0  0  0  0
  134.1030  114.0730   41.2580 C   0  0  0  0  0  0  0  0  0  0  0  0
  134.0150  114.2100   42.4730 O   0  0  0  0  0  0  0  0  0  0  0  0
  134.2890  112.8640   40.6330 N   0  0  0  0  0  0  0  0  0  0  0  0
  134.4090  111.6230   41.3700 C   0  0  0  0  0  0  0  0  0  0  0  0
  135.2360  110.5970   40.5970 C   0  0  0  0  0  0  0  0  0  0  0  0
  136.6860  111.0430   40.3450 C   0  0  0  0  0  0  0  0  0  0  0  0
  136.8430  111.8470   39.0470 C   0  0  0  0  0  0  0  0  0  0  0  0
  138.2650  112.3890   38.8890 C   0  0  0  0  0  0  0  0  0  0  0  0
  138.6570  113.2100   40.0420 N   0  0  0  0  0  0  0  0  0  0  0  0
  140.0050  113.7710   39.8250 C   0  0  0  0  0  0  0  0  0  0  0  0
  140.4300  114.7600   40.8910 C   0  0  0  0  0  0  0  0  0  0  0  0
  139.5750  115.8020   41.2790 C   0  0  0  0  0  0  0  0  0  0  0  0
  139.9720  116.7230   42.2490 C   0  0  0  0  0  0  0  0  0  0  0  0
  141.2300  116.6150   42.8380 C   0  0  0  0  0  0  0  0  0  0  0  0
  142.0910  115.5880   42.4580 C   0  0  0  0  0  0  0  0  0  0  0  0
  141.6960  114.6650   41.4880 C   0  0  0  0  0  0  0  0  0  0  0  0
  138.6010  112.4200   41.2820 C   0  0  0  0  0  0  0  0  0  0  0  0
  137.1900  111.8830   41.5270 C   0  0  0  0  0  0  0  0  0  0  0  0
  133.8870  116.4540   40.8290 C   0  0  0  0  0  0  0  0  0  0  0  0
  133.8040  117.6110   39.9270 C   0  0  0  0  0  0  0  0  0  0  0  0
  133.6820  118.7470   40.3630 O   0  0  0  0  0  0  0  0  0  0  0  0
  133.8760  117.3260   38.4860 C   0  0  0  0  0  0  0  0  0  0  0  0
  133.8040  118.3620   37.5480 C   0  0  0  0  0  0  0  0  0  0  0  0
  1  2  1  0
  2  3  2  0
  3  4  1  0
  4  5  2  0
  5  6  1  0
  6  7  1  0
  7  8  1  0
  8  9  2  0
  8 10  1  0
 10 11  1  0
 11 12  1  0
 12 13  1  0
 13 14  1  0
 14 15  1  0
 15 16  1  0
 16 17  1  0
 17 18  1  0
 18 19  2  0
 19 20  1  0
 20 21  2  0
 21 22  1  0
 22 23  2  0
 16 24  1  0
 24 25  1  0
  7 26  2  0
 26 27  1  0
 27 28  2  0
 27 29  1  0
 29 30  2  0
 30  2  1  0
 29  5  1  0
 25 13  1  0
 23 18  1  0
M  END
$$$$
