IWQVOBYFNTVEOD-ACCUITESSA-N_4EY7_m4
     RDKit          3D

 32 34  0  0  0  0  0  0  0  0999 V2000
   -8.4280  -43.1670   32.9230 C   0  0  0  0  0  0  0  0  0  0  0  0
   -9.6280  -43.9770   32.4590 C   0  0  0  0  0  0  0  0  0  0  0  0
   -9.2270  -45.1690   31.7200 N   0  0  0  0  0  0  0  0  0  0  0  0
   -7.8290  -45.5560   31.7720 C   0  0  0  0  0  0  0  0  0  0  0  0
  -10.1150  -45.9100   30.9460 C   0  0  0  0  0  0  0  0  0  0  0  0
  -11.0460  -46.5540   31.4210 O   0  0  0  0  0  0  0  0  0  0  0  0
   -9.8000  -45.8560   29.5910 O   0  0  0  0  0  0  0  0  0  0  0  0
  -10.8950  -45.5350   28.7800 C   0  0  0  0  0  0  0  0  0  0  0  0
  -11.5940  -46.5820   28.1810 C   0  0  0  0  0  0  0  0  0  0  0  0
  -12.6680  -46.2880   27.3410 C   0  0  0  0  0  0  0  0  0  0  0  0
  -13.0240  -44.9560   27.0840 C   0  0  0  0  0  0  0  0  0  0  0  0
  -14.1640  -44.6070   26.2260 C   0  0  0  0  0  0  0  0  0  0  0  0
  -14.1370  -43.6270   25.3100 C   0  0  0  0  0  0  0  0  0  0  0  0
  -15.3670  -43.3220   24.5330 C   0  0  0  0  0  0  0  0  0  0  0  0
  -15.4310  -43.6360   23.3470 O   0  0  0  0  0  0  0  0  0  0  0  0
  -16.4020  -42.7020   25.2140 N   0  0  0  0  0  0  0  0  0  0  0  0
  -17.6840  -42.5320   24.5340 C   0  0  0  0  0  0  0  0  0  0  0  0
  -18.8280  -43.0630   25.3980 C   0  0  0  0  0  0  0  0  0  0  0  0
  -18.8120  -42.4190   26.7950 C   0  0  0  0  0  0  0  0  0  0  0  0
  -19.9810  -42.8790   27.6920 C   0  0  0  0  0  0  0  0  0  0  0  0
  -21.1690  -43.4910   26.9920 C   0  0  0  0  0  0  0  0  0  0  0  0
  -21.3010  -44.8830   26.8960 C   0  0  0  0  0  0  0  0  0  0  0  0
  -22.3990  -45.4500   26.2470 C   0  0  0  0  0  0  0  0  0  0  0  0
  -23.3790  -44.6320   25.6910 C   0  0  0  0  0  0  0  0  0  0  0  0
  -23.2630  -43.2460   25.7850 C   0  0  0  0  0  0  0  0  0  0  0  0
  -22.1660  -42.6800   26.4340 C   0  0  0  0  0  0  0  0  0  0  0  0
  -17.4310  -42.6110   27.4480 C   0  0  0  0  0  0  0  0  0  0  0  0
  -16.3230  -42.0830   26.5380 C   0  0  0  0  0  0  0  0  0  0  0  0
  -12.3010  -43.9170   27.6980 C   0  0  0  0  0  0  0  0  0  0  0  0
  -11.2240  -44.1950   28.5450 C   0  0  0  0  0  0  0  0  0  0  0  0
  -10.4360  -43.2610   29.1620 O   0  0  0  0  0  0  0  0  0  0  0  0
   -9.6700  -42.4100   28.3210 C   0  0  0  0  0  0  0  0  0  0  0  0
  1  2  1  0
  2  3  1  0
  3  4  1  0
  3  5  1  0
  5  6  2  0
  5  7  1  0
  7  8  1  0
  8  9  2  0
  9 10  1  0
 10 11  2  0
 11 12  1  0
 12 13  2  0
 13 14  1  0
 14 15  2  0
 14 16  1  0
 16 17  1  0
 17 18  1  0
 18 19  1  0
 19 20  1  0
 20 21  1  0
 21 22  2  0
 22 23  1  0
 23 24  2  0
 24 25  1  0
 25 26  2  0
 19 27  1  0
 27 28  1  0
 11 29  1  0
 29 30  2  0
 30 31  1  0
 31 32  1  0
 30  8  1  0
 28 16  1  0
 26 21  1  0
M  END
$$$$
