IYGMCUZMVSMAMD-SFHVURJKSA-N_2JKH_m3
     RDKit          3D

 39 42  0  0  0  0  0  0  0  0999 V2000
   -8.4520    9.9100   21.7830 C   0  0  0  0  0  0  0  0  0  0  0  0
   -7.7020   10.7550   20.7600 C   0  0  0  0  0  0  0  0  0  0  0  0
   -6.1980   10.5700   20.7870 C   0  0  0  0  0  0  0  0  0  0  0  0
   -5.5740    9.6180   19.9300 C   0  0  0  0  0  0  0  0  0  0  0  0
   -6.2910    8.6590   19.1490 N   0  0  0  0  0  0  0  0  0  0  0  0
   -6.5580    7.3400   19.7240 C   0  0  0  0  0  0  0  0  0  0  0  0
   -6.4660    6.2410   18.6720 C   0  0  0  0  0  0  0  0  0  0  0  0
   -7.4470    6.4980   17.6690 O   0  0  0  0  0  0  0  0  0  0  0  0
   -7.1700    7.7250   17.0080 C   0  0  0  0  0  0  0  0  0  0  0  0
   -6.6340    8.9270   17.8180 C   0  0  0  0  0  0  0  0  0  0  0  0
   -6.4930   10.0230   17.2730 O   0  0  0  0  0  0  0  0  0  0  0  0
   -4.1680    9.5450   19.8570 C   0  0  0  0  0  0  0  0  0  0  0  0
   -3.3600   10.3440   20.6520 C   0  0  0  0  0  0  0  0  0  0  0  0
   -3.9500   11.2510   21.5210 C   0  0  0  0  0  0  0  0  0  0  0  0
   -5.3510   11.3880   21.5830 C   0  0  0  0  0  0  0  0  0  0  0  0
   -5.9160   12.6480   22.7340 S   0  0  0  0  0  0  0  0  0  0  0  0
   -6.4880   11.9600   23.8690 O   0  0  0  0  0  0  0  0  0  0  0  0
   -6.6200   13.6950   22.0330 O   0  0  0  0  0  0  0  0  0  0  0  0
   -4.4540   13.3760   23.1940 N   0  0  0  0  0  0  0  0  0  0  0  0
   -4.3310   13.7090   24.6580 C   0  0  1  0  0  0  0  0  0  0  0  0
   -2.9180   13.3340   25.1300 C   0  0  0  0  0  0  0  0  0  0  0  0
   -2.8970   12.0550   25.8280 N   0  0  0  0  0  0  0  0  0  0  0  0
   -1.9030   11.1250   25.5850 C   0  0  0  0  0  0  0  0  0  0  0  0
   -1.0350   11.3510   24.7450 O   0  0  0  0  0  0  0  0  0  0  0  0
   -1.9510    9.9280   26.4100 C   0  0  0  0  0  0  0  0  0  0  0  0
   -2.8790    9.5280   27.3620 C   0  0  0  0  0  0  0  0  0  0  0  0
   -2.5320    8.2840   27.9740 C   0  0  0  0  0  0  0  0  0  0  0  0
   -1.3570    7.7960   27.4660 C   0  0  0  0  0  0  0  0  0  0  0  0
   -0.5650    6.3470   27.9310 Cl  0  0  0  0  0  0  0  0  0  0  0  0
   -0.6700    8.7840   26.2810 S   0  0  0  0  0  0  0  0  0  0  0  0
   -4.5300   15.2170   24.8380 C   0  0  0  0  0  0  0  0  0  0  0  0
   -3.6260   15.9830   24.4800 O   0  0  0  0  0  0  0  0  0  0  0  0
   -5.7140   15.6770   25.3890 N   0  0  0  0  0  0  0  0  0  0  0  0
   -6.0440   17.0950   25.2980 C   0  0  0  0  0  0  0  0  0  0  0  0
   -7.2220   17.2780   24.3380 C   0  0  0  0  0  0  0  0  0  0  0  0
   -8.4130   16.3970   24.7340 C   0  0  0  0  0  0  0  0  0  0  0  0
   -9.0060   16.9060   25.9270 O   0  0  0  0  0  0  0  0  0  0  0  0
   -8.0050   14.9390   24.9680 C   0  0  0  0  0  0  0  0  0  0  0  0
   -6.8050   14.8500   25.9050 C   0  0  0  0  0  0  0  0  0  0  0  0
  1  2  1  0
  2  3  1  0
  3  4  2  0
  4  5  1  0
  5  6  1  0
  6  7  1  0
  7  8  1  0
  8  9  1  0
  9 10  1  0
 10 11  2  0
  4 12  1  0
 12 13  2  0
 13 14  1  0
 14 15  2  0
 15 16  1  0
 16 17  2  0
 16 18  2  0
 16 19  1  0
 19 20  1  0
 20 21  1  6
 21 22  1  0
 22 23  1  0
 23 24  2  0
 23 25  1  0
 25 26  2  0
 26 27  1  0
 27 28  2  0
 28 29  1  0
 28 30  1  0
 20 31  1  0
 31 32  2  0
 31 33  1  0
 33 34  1  0
 34 35  1  0
 35 36  1  0
 36 37  1  0
 36 38  1  0
 38 39  1  0
 15  3  1  0
 30 25  1  0
 39 33  1  0
 10  5  1  0
M  END
$$$$
