JCVHOVLJKALOTA-COOPMVRXSA-N_9V8H_m3
     RDKit          3D

 32 34  0  0  0  0  0  0  0  0999 V2000
  -15.2340   -0.3920  -28.3030 C   0  0  0  0  0  0  0  0  0  0  0  0
  -14.5510   -1.6620  -27.8860 C   0  0  0  0  0  0  0  0  0  0  0  0
  -14.6350   -2.1130  -26.5650 C   0  0  0  0  0  0  0  0  0  0  0  0
  -14.0180   -3.3100  -26.1820 C   0  0  0  0  0  0  0  0  0  0  0  0
  -13.3130   -4.0830  -27.1140 C   0  0  0  0  0  0  0  0  0  0  0  0
  -12.6510   -5.3300  -26.7410 C   0  0  0  0  0  0  0  0  0  0  0  0
  -12.8410   -6.0900  -25.6770 N   0  0  0  0  0  0  0  0  0  0  0  0
  -11.9480   -7.1270  -25.8340 C   0  0  0  0  0  0  0  0  0  0  0  0
  -11.8460   -8.2070  -24.8170 C   0  0  0  0  0  0  0  0  0  0  0  0
  -10.4530   -8.3360  -24.1910 C   0  0  0  0  0  0  0  0  0  0  0  0
  -10.4680   -9.0890  -22.8570 C   0  0  0  0  0  0  0  0  0  0  0  0
   -9.1170   -9.0690  -22.1310 C   0  0  0  0  0  0  0  0  0  0  0  0
   -8.0890   -8.1170  -22.7350 C   0  0  0  0  0  0  0  0  0  0  0  0
   -8.1220   -6.8790  -22.0280 O   0  0  0  0  0  0  0  0  0  0  0  0
   -6.8840   -6.6900  -21.4000 N   0  0  0  0  0  0  0  0  0  0  0  0
   -7.0150   -6.3010  -20.1650 C   0  0  0  0  0  0  0  0  0  0  0  0
   -5.7400   -6.0910  -19.3600 C   0  0  0  0  0  0  0  0  0  0  0  0
   -4.7150   -5.3160  -20.1810 C   0  0  0  0  0  0  0  0  0  0  0  0
   -4.9250   -3.8320  -20.0620 C   0  0  0  0  0  0  0  0  0  0  0  0
   -4.6700   -3.1320  -19.0950 O   0  0  0  0  0  0  0  0  0  0  0  0
   -5.4140   -3.2870  -21.1930 O   0  0  0  0  0  0  0  0  0  0  0  0
   -8.3010   -6.0140  -19.4810 C   0  0  0  0  0  0  0  0  0  0  0  0
   -8.8250   -4.7180  -19.5050 C   0  0  0  0  0  0  0  0  0  0  0  0
  -10.0170   -4.4420  -18.8350 C   0  0  0  0  0  0  0  0  0  0  0  0
  -10.6760   -5.4570  -18.1390 C   0  0  0  0  0  0  0  0  0  0  0  0
  -10.1520   -6.7510  -18.1190 C   0  0  0  0  0  0  0  0  0  0  0  0
   -8.9610   -7.0340  -18.7890 C   0  0  0  0  0  0  0  0  0  0  0  0
  -11.2490   -6.9570  -27.0100 C   0  0  0  0  0  0  0  0  0  0  0  0
  -10.1900   -7.7000  -27.7120 C   0  0  0  0  0  0  0  0  0  0  0  0
  -11.6900   -5.8040  -27.5960 O   0  0  0  0  0  0  0  0  0  0  0  0
  -13.2500   -3.6340  -28.4400 C   0  0  0  0  0  0  0  0  0  0  0  0
  -13.8670   -2.4400  -28.8260 C   0  0  0  0  0  0  0  0  0  0  0  0
  1  2  1  0
  2  3  2  0
  3  4  1  0
  4  5  2  0
  5  6  1  0
  6  7  2  0
  7  8  1  0
  8  9  1  0
  9 10  1  0
 10 11  1  0
 11 12  1  0
 12 13  1  0
 13 14  1  0
 14 15  1  0
 15 16  2  0
 16 17  1  0
 17 18  1  0
 18 19  1  0
 19 20  2  0
 19 21  1  0
 16 22  1  0
 22 23  2  0
 23 24  1  0
 24 25  2  0
 25 26  1  0
 26 27  2  0
  8 28  2  0
 28 29  1  0
 28 30  1  0
  5 31  1  0
 31 32  2  0
 32  2  1  0
 30  6  1  0
 27 22  1  0
M  END
$$$$
