JFUVFUCRMGFVPT-UHFFFAOYSA-N_5U3Q_m5
     RDKit          3D

 35 38  0  0  0  0  0  0  0  0999 V2000
   40.4960  -40.0610  104.2000 O   0  0  0  0  0  0  0  0  0  0  0  0
   41.6650  -39.8660  104.5090 C   0  0  0  0  0  0  0  0  0  0  0  0
   42.7290  -39.7030  103.6430 N   0  0  0  0  0  0  0  0  0  0  0  0
   42.7430  -39.8040  102.2290 C   0  0  0  0  0  0  0  0  0  0  0  0
   42.1410  -38.8440  101.4070 C   0  0  0  0  0  0  0  0  0  0  0  0
   42.1690  -38.9690  100.0140 C   0  0  0  0  0  0  0  0  0  0  0  0
   42.8000  -40.0590   99.4270 C   0  0  0  0  0  0  0  0  0  0  0  0
   42.8330  -40.2070   97.7130 Cl  0  0  0  0  0  0  0  0  0  0  0  0
   43.4010  -41.0320  100.2170 C   0  0  0  0  0  0  0  0  0  0  0  0
   43.3760  -40.9170  101.6180 C   0  0  0  0  0  0  0  0  0  0  0  0
   44.0130  -41.9750  102.4520 C   0  0  0  0  0  0  0  0  0  0  0  0
   44.5140  -41.8110  103.5530 O   0  0  0  0  0  0  0  0  0  0  0  0
   43.9730  -43.1920  101.8800 O   0  0  0  0  0  0  0  0  0  0  0  0
   42.0060  -39.7480  105.9590 C   0  0  0  0  0  0  0  0  0  0  0  0
   41.0850  -39.1270  106.8150 C   0  0  0  0  0  0  0  0  0  0  0  0
   41.3640  -38.9830  108.1770 C   0  0  0  0  0  0  0  0  0  0  0  0
   42.5720  -39.4500  108.6930 C   0  0  0  0  0  0  0  0  0  0  0  0
   43.4940  -40.0630  107.8400 C   0  0  0  0  0  0  0  0  0  0  0  0
   45.0350  -40.6760  108.4910 S   0  0  0  0  0  0  0  0  0  0  0  0
   44.8080  -41.0200  109.8780 O   0  0  0  0  0  0  0  0  0  0  0  0
   45.5370  -41.6540  107.5500 O   0  0  0  0  0  0  0  0  0  0  0  0
   46.0480  -39.3190  108.4350 N   0  0  0  0  0  0  0  0  0  0  0  0
   45.4130  -38.0030  108.2360 C   0  0  0  0  0  0  0  0  0  0  0  0
   46.3380  -36.9110  108.7750 C   0  0  0  0  0  0  0  0  0  0  0  0
   47.7470  -37.0050  108.2280 C   0  0  0  0  0  0  0  0  0  0  0  0
   48.1920  -38.2410  107.7000 C   0  0  0  0  0  0  0  0  0  0  0  0
   49.4870  -38.3480  107.1670 C   0  0  0  0  0  0  0  0  0  0  0  0
   50.3520  -37.2610  107.1820 C   0  0  0  0  0  0  0  0  0  0  0  0
   49.9370  -36.0520  107.7370 C   0  0  0  0  0  0  0  0  0  0  0  0
   48.6430  -35.9110  108.2690 C   0  0  0  0  0  0  0  0  0  0  0  0
   48.2620  -34.6100  108.8940 C   0  0  0  0  0  0  0  0  0  0  0  0
   48.3650  -34.2970  110.0650 O   0  0  0  0  0  0  0  0  0  0  0  0
   47.7380  -33.7470  108.0020 O   0  0  0  0  0  0  0  0  0  0  0  0
   47.2960  -39.4650  107.6590 C   0  0  0  0  0  0  0  0  0  0  0  0
   43.2040  -40.2480  106.4830 C   0  0  0  0  0  0  0  0  0  0  0  0
  1  2  2  0
  2  3  1  0
  3  4  1  0
  4  5  2  0
  5  6  1  0
  6  7  2  0
  7  8  1  0
  7  9  1  0
  9 10  2  0
 10 11  1  0
 11 12  2  0
 11 13  1  0
  2 14  1  0
 14 15  2  0
 15 16  1  0
 16 17  2  0
 17 18  1  0
 18 19  1  0
 19 20  2  0
 19 21  2  0
 19 22  1  0
 22 23  1  0
 23 24  1  0
 24 25  1  0
 25 26  2  0
 26 27  1  0
 27 28  2  0
 28 29  1  0
 29 30  2  0
 30 31  1  0
 31 32  2  0
 31 33  1  0
 26 34  1  0
 18 35  2  0
 10  4  1  0
 35 14  1  0
 34 22  1  0
 30 25  1  0
M  END
$$$$
