JHULSUDSBNZWAW-AERCQKQUSA-N_3RCD_m5
     RDKit          3D

 40 46  0  0  0  0  0  0  0  0999 V2000
    9.5670    2.4230   32.3130 C   0  0  0  0  0  0  0  0  0  0  0  0
   10.6340    1.6130   32.2470 C   0  0  0  0  0  0  0  0  0  0  0  0
   11.0380    1.0090   30.9480 C   0  0  0  0  0  0  0  0  0  0  0  0
   10.8200   -0.1780   30.7150 O   0  0  0  0  0  0  0  0  0  0  0  0
   11.6690    1.8310   30.0470 N   0  0  0  0  0  0  0  0  0  0  0  0
   12.7820    2.7510   30.2100 C   0  0  2  0  0  0  0  0  0  0  0  0
   12.5000    3.8270   29.1540 C   0  0  0  0  0  0  0  0  0  0  0  0
   11.5730    3.1470   28.1380 C   0  0  0  0  0  0  0  0  0  0  0  0
   11.4640    1.7010   28.6180 C   0  0  1  0  0  0  0  0  0  0  0  0
   12.5780    0.7910   28.0760 C   0  0  0  0  0  0  0  0  0  0  0  0
   14.0010    1.1330   28.6000 C   0  0  1  0  0  0  0  0  0  0  0  0
   14.8710    1.7070   27.5720 N   0  0  0  0  0  0  0  0  0  0  0  0
   14.6880    2.9700   27.1390 N   0  0  0  0  0  0  0  0  0  0  0  0
   15.6190    3.1370   26.1850 C   0  0  0  0  0  0  0  0  0  0  0  0
   15.6760    4.3890   25.4450 C   0  0  0  0  0  0  0  0  0  0  0  0
   16.4430    5.4600   25.9200 C   0  0  0  0  0  0  0  0  0  0  0  0
   16.5030    6.6560   25.2030 C   0  0  0  0  0  0  0  0  0  0  0  0
   15.7890    6.7930   24.0050 C   0  0  0  0  0  0  0  0  0  0  0  0
   15.8610    7.9470   23.2540 O   0  0  0  0  0  0  0  0  0  0  0  0
   17.1010    8.2930   22.7590 C   0  0  0  0  0  0  0  0  0  0  0  0
   17.7100    9.5080   23.0890 C   0  0  0  0  0  0  0  0  0  0  0  0
   18.9560    9.8580   22.5540 C   0  0  0  0  0  0  0  0  0  0  0  0
   19.5460    8.9440   21.6730 C   0  0  0  0  0  0  0  0  0  0  0  0
   18.9420    7.7380   21.3170 C   0  0  0  0  0  0  0  0  0  0  0  0
   17.6920    7.4030   21.8560 C   0  0  0  0  0  0  0  0  0  0  0  0
   19.7280    7.0350   20.4360 N   0  0  0  0  0  0  0  0  0  0  0  0
   20.7890    7.7850   20.2460 C   0  0  0  0  0  0  0  0  0  0  0  0
   20.7230    8.9430   20.9670 N   0  0  0  0  0  0  0  0  0  0  0  0
   21.7220    9.9840   20.9770 C   0  0  0  0  0  0  0  0  0  0  0  0
   15.0500    5.7110   23.5110 C   0  0  0  0  0  0  0  0  0  0  0  0
   14.1820    5.8220   22.0240 Cl  0  0  0  0  0  0  0  0  0  0  0  0
   14.9920    4.5150   24.2290 C   0  0  0  0  0  0  0  0  0  0  0  0
   16.4500    1.9860   26.0590 C   0  0  0  0  0  0  0  0  0  0  0  0
   17.5740    1.5720   25.3260 C   0  0  0  0  0  0  0  0  0  0  0  0
   18.3040    2.4000   24.3160 C   0  0  0  0  0  0  0  0  0  0  0  0
   18.0440    0.3090   25.5370 N   0  0  0  0  0  0  0  0  0  0  0  0
   17.4320   -0.4710   26.4480 C   0  0  0  0  0  0  0  0  0  0  0  0
   16.3750   -0.1650   27.2150 N   0  0  0  0  0  0  0  0  0  0  0  0
   15.9290    1.0790   26.9680 C   0  0  0  0  0  0  0  0  0  0  0  0
   14.0610    1.9590   29.9140 C   0  0  0  0  0  0  0  0  0  0  0  0
  1  2  2  0
  2  3  1  0
  3  4  2  0
  3  5  1  0
  5  6  1  0
  6  7  1  6
  7  8  1  0
  9  8  1  6
  9 10  1  0
 10 11  1  0
 11 12  1  6
 12 13  1  0
 13 14  2  0
 14 15  1  0
 15 16  2  0
 16 17  1  0
 17 18  2  0
 18 19  1  0
 19 20  1  0
 20 21  2  0
 21 22  1  0
 22 23  2  0
 23 24  1  0
 24 25  2  0
 24 26  1  0
 26 27  2  0
 27 28  1  0
 28 29  1  0
 18 30  1  0
 30 31  1  0
 30 32  2  0
 14 33  1  0
 33 34  2  0
 34 35  1  0
 34 36  1  0
 36 37  2  0
 37 38  1  0
 38 39  2  0
 11 40  1  0
  9  5  1  0
 39 12  1  0
 40  6  1  0
 32 15  1  0
 39 33  1  0
 25 20  1  0
 28 23  1  0
M  END
$$$$
