JIQRNDHLAYBGQI-MULIXUIOSA-N_2JKH_m6
     RDKit          3D

 40 42  0  0  0  0  0  0  0  0999 V2000
   -4.1880   11.5370   17.6490 C   0  0  0  0  0  0  0  0  0  0  0  0
   -5.2430   11.8370   18.7070 C   0  0  0  0  0  0  0  0  0  0  0  0
   -5.7520   10.5760   19.3810 C   0  0  0  0  0  0  0  0  0  0  0  0
   -6.6950    9.7110   18.7590 C   0  0  0  0  0  0  0  0  0  0  0  0
   -7.3450    9.9720   17.5150 N   0  0  0  0  0  0  0  0  0  0  0  0
   -8.5800   10.6950   17.3770 C   0  0  0  0  0  0  0  0  0  0  0  0
   -9.1910   10.1410   16.1080 C   0  0  0  0  0  0  0  0  0  0  0  0
   -7.9780    9.8890   15.2110 C   0  0  2  0  0  0  0  0  0  0  0  0
   -8.2520    8.8800   14.1560 N   0  0  0  0  0  0  0  0  0  0  0  0
   -8.1250    9.4600   12.8120 C   0  0  0  0  0  0  0  0  0  0  0  0
   -9.6010    8.3190   14.2960 C   0  0  0  0  0  0  0  0  0  0  0  0
   -6.9300    9.4610   16.2630 C   0  0  0  0  0  0  0  0  0  0  0  0
   -5.8820    8.8690   16.0330 O   0  0  0  0  0  0  0  0  0  0  0  0
   -7.0460    8.5090   19.4100 C   0  0  0  0  0  0  0  0  0  0  0  0
   -6.5250    8.1530   20.6500 C   0  0  0  0  0  0  0  0  0  0  0  0
   -5.6080    8.9840   21.2640 C   0  0  0  0  0  0  0  0  0  0  0  0
   -5.2040   10.1720   20.6380 C   0  0  0  0  0  0  0  0  0  0  0  0
   -3.9260   11.1210   21.4610 S   0  0  0  0  0  0  0  0  0  0  0  0
   -4.4790   12.4200   21.7730 O   0  0  0  0  0  0  0  0  0  0  0  0
   -2.6900   10.9540   20.7320 O   0  0  0  0  0  0  0  0  0  0  0  0
   -3.6470   10.2860   22.9140 N   0  0  0  0  0  0  0  0  0  0  0  0
   -2.8090   11.0350   23.9210 C   0  0  1  0  0  0  0  0  0  0  0  0
   -3.6020   11.1430   25.2310 C   0  0  0  0  0  0  0  0  0  0  0  0
   -4.7970   11.9560   25.0710 N   0  0  0  0  0  0  0  0  0  0  0  0
   -4.8140   13.3100   25.3380 C   0  0  0  0  0  0  0  0  0  0  0  0
   -3.8130   13.8900   25.7580 O   0  0  0  0  0  0  0  0  0  0  0  0
   -6.0770   13.9920   25.0950 C   0  0  0  0  0  0  0  0  0  0  0  0
   -6.5730   15.0860   25.7880 C   0  0  0  0  0  0  0  0  0  0  0  0
   -7.8420   15.5170   25.3000 C   0  0  0  0  0  0  0  0  0  0  0  0
   -8.2530   14.7380   24.2520 C   0  0  0  0  0  0  0  0  0  0  0  0
   -9.7110   14.9040   23.3600 Cl  0  0  0  0  0  0  0  0  0  0  0  0
   -7.1580   13.5120   23.8490 S   0  0  0  0  0  0  0  0  0  0  0  0
   -1.5240   10.2850   24.2220 C   0  0  0  0  0  0  0  0  0  0  0  0
   -0.5690   10.2490   23.4570 O   0  0  0  0  0  0  0  0  0  0  0  0
   -1.6000    9.6470   25.4200 O   0  0  0  0  0  0  0  0  0  0  0  0
   -0.4210    8.8980   25.7650 C   0  0  0  0  0  0  0  0  0  0  0  0
   -0.4370    8.6080   27.2590 C   0  0  0  0  0  0  0  0  0  0  0  0
   -1.3840    7.0900   27.6060 S   0  0  0  0  0  0  0  0  0  0  0  0
   -2.8210    7.9310   28.3150 C   0  0  0  0  0  0  0  0  0  0  0  0
   -0.6130    6.2960   28.8420 O   0  0  0  0  0  0  0  0  0  0  0  0
  1  2  1  0
  2  3  1  0
  3  4  2  0
  4  5  1  0
  5  6  1  0
  6  7  1  0
  7  8  1  0
  8  9  1  6
  9 10  1  0
  9 11  1  0
  8 12  1  0
 12 13  2  0
  4 14  1  0
 14 15  2  0
 15 16  1  0
 16 17  2  0
 17 18  1  0
 18 19  2  0
 18 20  2  0
 18 21  1  0
 21 22  1  0
 22 23  1  1
 23 24  1  0
 24 25  1  0
 25 26  2  0
 25 27  1  0
 27 28  2  0
 28 29  1  0
 29 30  2  0
 30 31  1  0
 30 32  1  0
 22 33  1  0
 33 34  2  0
 33 35  1  0
 35 36  1  0
 36 37  1  0
 37 38  1  0
 38 39  1  1
 38 40  1  0
 17  3  1  0
 32 27  1  0
 12  5  1  0
M  CHG  2  38   1  40  -1
M  END
$$$$
