JJHXVSSJRMTBMC-UHFFFAOYSA-N_3POZ_m5
     RDKit          3D

 32 35  0  0  0  0  0  0  0  0999 V2000
   18.5690   32.7910   12.8050 O   0  0  0  0  0  0  0  0  0  0  0  0
   17.6680   33.3110   12.1630 C   0  0  0  0  0  0  0  0  0  0  0  0
   17.6400   33.1170   10.7280 C   0  0  0  0  0  0  0  0  0  0  0  0
   17.6180   32.9570    9.5360 C   0  0  0  0  0  0  0  0  0  0  0  0
   17.6030   32.7440    8.0790 C   0  0  0  0  0  0  0  0  0  0  0  0
   16.1640   32.6010    7.5560 C   0  0  0  0  0  0  0  0  0  0  0  0
   15.7950   31.2120    7.2200 N   0  0  0  0  0  0  0  0  0  0  0  0
   17.0000   30.3490    7.2370 C   0  0  0  0  0  0  0  0  0  0  0  0
   16.6490   28.8810    6.9500 C   0  0  0  0  0  0  0  0  0  0  0  0
   15.7010   28.3830    7.9020 O   0  0  0  0  0  0  0  0  0  0  0  0
   14.5060   29.1730    7.8600 C   0  0  0  0  0  0  0  0  0  0  0  0
   14.8030   30.6510    8.1650 C   0  0  0  0  0  0  0  0  0  0  0  0
   16.6500   34.0900   12.6390 N   0  0  0  0  0  0  0  0  0  0  0  0
   16.3920   34.4570   13.9570 C   0  0  0  0  0  0  0  0  0  0  0  0
   17.2730   35.1650   14.7590 C   0  0  0  0  0  0  0  0  0  0  0  0
   16.9000   35.5040   16.0860 C   0  0  0  0  0  0  0  0  0  0  0  0
   17.6940   36.2290   16.9980 C   0  0  0  0  0  0  0  0  0  0  0  0
   18.9640   36.6970   16.5960 N   0  0  0  0  0  0  0  0  0  0  0  0
   20.1320   35.9980   16.2390 C   0  0  0  0  0  0  0  0  0  0  0  0
   20.8040   36.3630   15.0590 C   0  0  0  0  0  0  0  0  0  0  0  0
   21.9570   35.6900   14.6450 C   0  0  0  0  0  0  0  0  0  0  0  0
   22.4450   34.6360   15.4060 C   0  0  0  0  0  0  0  0  0  0  0  0
   23.5510   34.0000   14.9910 F   0  0  0  0  0  0  0  0  0  0  0  0
   21.7910   34.2460   16.5700 C   0  0  0  0  0  0  0  0  0  0  0  0
   22.3830   32.9280   17.5080 Cl  0  0  0  0  0  0  0  0  0  0  0  0
   20.6380   34.9210   16.9800 C   0  0  0  0  0  0  0  0  0  0  0  0
   17.2780   36.4760   18.2550 N   0  0  0  0  0  0  0  0  0  0  0  0
   16.0680   36.0310   18.5990 C   0  0  0  0  0  0  0  0  0  0  0  0
   15.2280   35.3540   17.8130 N   0  0  0  0  0  0  0  0  0  0  0  0
   15.6560   35.0950   16.5700 C   0  0  0  0  0  0  0  0  0  0  0  0
   14.8650   34.3870   15.6820 C   0  0  0  0  0  0  0  0  0  0  0  0
   15.1900   34.0600   14.4030 N   0  0  0  0  0  0  0  0  0  0  0  0
  1  2  2  0
  2  3  1  0
  3  4  3  0
  4  5  1  0
  5  6  1  0
  6  7  1  0
  7  8  1  0
  8  9  1  0
  9 10  1  0
 10 11  1  0
 11 12  1  0
  2 13  1  0
 13 14  1  0
 14 15  2  0
 15 16  1  0
 16 17  2  0
 17 18  1  0
 18 19  1  0
 19 20  2  0
 20 21  1  0
 21 22  2  0
 22 23  1  0
 22 24  1  0
 24 25  1  0
 24 26  2  0
 17 27  1  0
 27 28  2  0
 28 29  1  0
 29 30  2  0
 30 31  1  0
 31 32  2  0
 12  7  1  0
 32 14  1  0
 30 16  1  0
 26 19  1  0
M  END
$$$$
