JLAXJZRUAXLLMT-UHFFFAOYSA-N_6LXA_m8
     RDKit          3D

 36 40  0  0  0  0  0  0  0  0999 V2000
    9.3780    1.6530   -3.1450 C   0  0  0  0  0  0  0  0  0  0  0  0
    9.4820    2.9140   -3.9910 C   0  0  0  0  0  0  0  0  0  0  0  0
    8.7810    2.7930   -5.3480 C   0  0  0  0  0  0  0  0  0  0  0  0
    8.0440    4.0470   -5.7680 C   0  0  0  0  0  0  0  0  0  0  0  0
    6.8980    4.4400   -5.0500 C   0  0  0  0  0  0  0  0  0  0  0  0
    6.1740    5.5820   -5.4110 C   0  0  0  0  0  0  0  0  0  0  0  0
    4.9730    5.9750   -4.6770 C   0  0  0  0  0  0  0  0  0  0  0  0
    3.9780    6.6420   -5.2890 N   0  0  0  0  0  0  0  0  0  0  0  0
    3.0120    6.8680   -4.3270 O   0  0  0  0  0  0  0  0  0  0  0  0
    3.4080    6.3280   -3.1470 C   0  0  0  0  0  0  0  0  0  0  0  0
    2.6890    6.3500   -1.9550 C   0  0  0  0  0  0  0  0  0  0  0  0
    3.2850    5.7160   -0.8600 C   0  0  0  0  0  0  0  0  0  0  0  0
    4.5330    5.0950   -0.9770 C   0  0  0  0  0  0  0  0  0  0  0  0
    5.2280    5.0940   -2.1950 C   0  0  0  0  0  0  0  0  0  0  0  0
    4.6480    5.7370   -3.3060 C   0  0  0  0  0  0  0  0  0  0  0  0
    6.6230    6.3480   -6.4920 C   0  0  0  0  0  0  0  0  0  0  0  0
    7.7610    5.9710   -7.2130 C   0  0  0  0  0  0  0  0  0  0  0  0
    8.4730    4.8200   -6.8630 C   0  0  0  0  0  0  0  0  0  0  0  0
    9.5930    4.3690   -7.5100 O   0  0  0  0  0  0  0  0  0  0  0  0
    9.4100    3.6410   -8.7250 C   0  0  0  0  0  0  0  0  0  0  0  0
   10.6840    3.8000   -9.5520 C   0  0  0  0  0  0  0  0  0  0  0  0
   10.3880    4.1410  -11.0070 C   0  0  0  0  0  0  0  0  0  0  0  0
   11.4580    4.9310  -11.5220 O   0  0  0  0  0  0  0  0  0  0  0  0
   11.1870    6.2360  -11.8260 C   0  0  0  0  0  0  0  0  0  0  0  0
   11.5230    6.6100  -13.1280 C   0  0  0  0  0  0  0  0  0  0  0  0
   11.3070    7.9140  -13.5690 C   0  0  0  0  0  0  0  0  0  0  0  0
   10.7450    8.8580  -12.7100 C   0  0  0  0  0  0  0  0  0  0  0  0
   10.3840    8.5040  -11.4000 C   0  0  0  0  0  0  0  0  0  0  0  0
    9.7930    9.5040  -10.4290 C   0  0  1  0  0  0  0  0  0  0  0  0
    9.8140    8.8690   -8.7200 S   0  0  0  0  0  0  0  0  0  0  0  0
   10.6670   10.2580   -8.1090 C   0  0  0  0  0  0  0  0  0  0  0  0
   10.9740   10.4080   -6.9400 O   0  0  0  0  0  0  0  0  0  0  0  0
   10.9290   11.1360   -9.1040 N   0  0  0  0  0  0  0  0  0  0  0  0
   10.5100   10.8410  -10.3670 C   0  0  0  0  0  0  0  0  0  0  0  0
   10.7000   11.5930  -11.3140 O   0  0  0  0  0  0  0  0  0  0  0  0
   10.6220    7.1820  -10.9680 C   0  0  0  0  0  0  0  0  0  0  0  0
  1  2  1  0
  2  3  1  0
  3  4  1  0
  4  5  2  0
  5  6  1  0
  6  7  1  0
  7  8  2  0
  8  9  1  0
  9 10  1  0
 10 11  2  0
 11 12  1  0
 12 13  2  0
 13 14  1  0
 14 15  2  0
  6 16  2  0
 16 17  1  0
 17 18  2  0
 18 19  1  0
 19 20  1  0
 20 21  1  0
 21 22  1  0
 22 23  1  0
 23 24  1  0
 24 25  2  0
 25 26  1  0
 26 27  2  0
 27 28  1  0
 29 28  1  6
 29 30  1  0
 30 31  1  0
 31 32  2  0
 31 33  1  0
 33 34  1  0
 34 35  2  0
 28 36  2  0
 18  4  1  0
 36 24  1  0
 15  7  1  0
 34 29  1  0
 15 10  1  0
M  END
$$$$
