JLAXJZRUAXLLMT-UHFFFAOYSA-N_5U3Q_m7
     RDKit          3D

 36 40  0  0  0  0  0  0  0  0999 V2000
   37.5850  -38.2030  103.2010 C   0  0  0  0  0  0  0  0  0  0  0  0
   38.9500  -38.8800  103.2020 C   0  0  0  0  0  0  0  0  0  0  0  0
   39.4030  -39.3280  104.5940 C   0  0  0  0  0  0  0  0  0  0  0  0
   40.8710  -39.6920  104.6700 C   0  0  0  0  0  0  0  0  0  0  0  0
   41.5010  -40.2350  103.5340 C   0  0  0  0  0  0  0  0  0  0  0  0
   42.8510  -40.6020  103.5610 C   0  0  0  0  0  0  0  0  0  0  0  0
   43.4960  -41.1840  102.3860 C   0  0  0  0  0  0  0  0  0  0  0  0
   44.3520  -42.2160  102.5080 N   0  0  0  0  0  0  0  0  0  0  0  0
   44.7860  -42.5140  101.2310 O   0  0  0  0  0  0  0  0  0  0  0  0
   44.1870  -41.6850  100.3400 C   0  0  0  0  0  0  0  0  0  0  0  0
   44.3720  -41.6960   98.9600 C   0  0  0  0  0  0  0  0  0  0  0  0
   43.6380  -40.7570   98.2280 C   0  0  0  0  0  0  0  0  0  0  0  0
   42.7680  -39.8670   98.8650 C   0  0  0  0  0  0  0  0  0  0  0  0
   42.6070  -39.8850  100.2590 C   0  0  0  0  0  0  0  0  0  0  0  0
   43.3470  -40.8180  101.0130 C   0  0  0  0  0  0  0  0  0  0  0  0
   43.5790  -40.3990  104.7380 C   0  0  0  0  0  0  0  0  0  0  0  0
   42.9670  -39.8590  105.8730 C   0  0  0  0  0  0  0  0  0  0  0  0
   41.6140  -39.5090  105.8520 C   0  0  0  0  0  0  0  0  0  0  0  0
   40.9270  -38.9800  106.9120 O   0  0  0  0  0  0  0  0  0  0  0  0
   41.6410  -38.1230  107.8050 C   0  0  0  0  0  0  0  0  0  0  0  0
   41.7520  -38.8480  109.1450 C   0  0  0  0  0  0  0  0  0  0  0  0
   43.1940  -38.9580  109.6230 C   0  0  0  0  0  0  0  0  0  0  0  0
   43.7730  -40.1420  109.0780 O   0  0  0  0  0  0  0  0  0  0  0  0
   45.1230  -40.1410  108.8610 C   0  0  0  0  0  0  0  0  0  0  0  0
   45.6820  -41.4070  108.6860 C   0  0  0  0  0  0  0  0  0  0  0  0
   47.0500  -41.5530  108.4640 C   0  0  0  0  0  0  0  0  0  0  0  0
   47.8730  -40.4280  108.4080 C   0  0  0  0  0  0  0  0  0  0  0  0
   47.3320  -39.1420  108.5660 C   0  0  0  0  0  0  0  0  0  0  0  0
   48.1930  -37.8970  108.5360 C   0  0  1  0  0  0  0  0  0  0  0  0
   49.0230  -37.6970  106.9250 S   0  0  0  0  0  0  0  0  0  0  0  0
   48.4040  -36.0870  106.6930 C   0  0  0  0  0  0  0  0  0  0  0  0
   48.6520  -35.3960  105.7220 O   0  0  0  0  0  0  0  0  0  0  0  0
   47.6250  -35.7180  107.7350 N   0  0  0  0  0  0  0  0  0  0  0  0
   47.4480  -36.5930  108.7650 C   0  0  0  0  0  0  0  0  0  0  0  0
   46.7680  -36.3240  109.7470 O   0  0  0  0  0  0  0  0  0  0  0  0
   45.9470  -39.0150  108.8030 C   0  0  0  0  0  0  0  0  0  0  0  0
  1  2  1  0
  2  3  1  0
  3  4  1  0
  4  5  2  0
  5  6  1  0
  6  7  1  0
  7  8  2  0
  8  9  1  0
  9 10  1  0
 10 11  2  0
 11 12  1  0
 12 13  2  0
 13 14  1  0
 14 15  2  0
  6 16  2  0
 16 17  1  0
 17 18  2  0
 18 19  1  0
 19 20  1  0
 20 21  1  0
 21 22  1  0
 22 23  1  0
 23 24  1  0
 24 25  2  0
 25 26  1  0
 26 27  2  0
 27 28  1  0
 29 28  1  6
 29 30  1  0
 30 31  1  0
 31 32  2  0
 31 33  1  0
 33 34  1  0
 34 35  2  0
 28 36  2  0
 18  4  1  0
 36 24  1  0
 15  7  1  0
 34 29  1  0
 15 10  1  0
M  END
$$$$
