JOGKUKXHTYWRGZ-UHFFFAOYSA-N_4L23_m7
     RDKit          3D

 36 41  0  0  0  0  0  0  0  0999 V2000
   40.0560   51.0360   40.9860 C   0  0  0  0  0  0  0  0  0  0  0  0
   38.7890   50.3690   41.0910 N   0  0  0  0  0  0  0  0  0  0  0  0
   38.2090   49.5500   40.1030 C   0  0  0  0  0  0  0  0  0  0  0  0
   38.6980   49.2950   39.0120 O   0  0  0  0  0  0  0  0  0  0  0  0
   36.9380   49.1510   40.6220 N   0  0  0  0  0  0  0  0  0  0  0  0
   35.9350   48.5460   39.8420 C   0  0  0  0  0  0  0  0  0  0  0  0
   34.9740   49.3050   39.1670 C   0  0  0  0  0  0  0  0  0  0  0  0
   33.9900   48.6930   38.3790 C   0  0  0  0  0  0  0  0  0  0  0  0
   33.9360   47.2960   38.2340 C   0  0  0  0  0  0  0  0  0  0  0  0
   32.8610   46.5990   37.3770 C   0  0  0  0  0  0  0  0  0  0  0  0
   31.7620   47.6230   37.0310 C   0  0  0  0  0  0  0  0  0  0  0  0
   33.4660   46.0420   36.0690 C   0  0  0  0  0  0  0  0  0  0  0  0
   32.2180   45.4490   38.0710 C   0  0  0  0  0  0  0  0  0  0  0  0
   31.7170   44.5510   38.6130 N   0  0  0  0  0  0  0  0  0  0  0  0
   34.9470   46.5480   38.8660 C   0  0  0  0  0  0  0  0  0  0  0  0
   35.9330   47.1630   39.6480 C   0  0  0  0  0  0  0  0  0  0  0  0
   36.8010   49.6550   41.9450 C   0  0  0  0  0  0  0  0  0  0  0  0
   35.8630   49.4380   42.9710 C   0  0  0  0  0  0  0  0  0  0  0  0
   34.8100   48.4850   42.9590 C   0  0  0  0  0  0  0  0  0  0  0  0
   33.8980   48.3540   44.0180 C   0  0  0  0  0  0  0  0  0  0  0  0
   32.8060   47.3740   43.9540 C   0  0  0  0  0  0  0  0  0  0  0  0
   32.4080   46.7840   42.7580 C   0  0  0  0  0  0  0  0  0  0  0  0
   31.4010   45.8840   42.6310 N   0  0  0  0  0  0  0  0  0  0  0  0
   30.7290   45.5320   43.7400 C   0  0  0  0  0  0  0  0  0  0  0  0
   29.6880   44.6170   43.6510 C   0  0  0  0  0  0  0  0  0  0  0  0
   28.9590   44.2200   44.7760 C   0  0  0  0  0  0  0  0  0  0  0  0
   29.2760   44.7430   46.0250 C   0  0  0  0  0  0  0  0  0  0  0  0
   30.3170   45.6610   46.1430 C   0  0  0  0  0  0  0  0  0  0  0  0
   31.0440   46.0620   45.0080 C   0  0  0  0  0  0  0  0  0  0  0  0
   32.0940   46.9890   45.0950 C   0  0  0  0  0  0  0  0  0  0  0  0
   34.0760   49.1830   45.1270 C   0  0  0  0  0  0  0  0  0  0  0  0
   35.1470   50.0820   45.1790 C   0  0  0  0  0  0  0  0  0  0  0  0
   36.0560   50.2110   44.1400 C   0  0  0  0  0  0  0  0  0  0  0  0
   37.0980   51.0520   44.3210 N   0  0  0  0  0  0  0  0  0  0  0  0
   38.0420   51.1370   43.3580 C   0  0  0  0  0  0  0  0  0  0  0  0
   37.9220   50.4480   42.1830 C   0  0  0  0  0  0  0  0  0  0  0  0
  1  2  1  0
  2  3  1  0
  3  4  2  0
  3  5  1  0
  5  6  1  0
  6  7  2  0
  7  8  1  0
  8  9  2  0
  9 10  1  0
 10 11  1  0
 10 12  1  0
 10 13  1  0
 13 14  3  0
  9 15  1  0
 15 16  2  0
  5 17  1  0
 17 18  2  0
 18 19  1  0
 19 20  2  0
 20 21  1  0
 21 22  2  0
 22 23  1  0
 23 24  2  0
 24 25  1  0
 25 26  2  0
 26 27  1  0
 27 28  2  0
 28 29  1  0
 29 30  2  0
 20 31  1  0
 31 32  2  0
 32 33  1  0
 33 34  2  0
 34 35  1  0
 35 36  2  0
 36  2  1  0
 16  6  1  0
 36 17  1  0
 33 18  1  0
 30 21  1  0
 29 24  1  0
M  END
$$$$
