JORCOHASOWOJOX-UHFFFAOYSA-N_4EY7_m2
     RDKit          3D

 32 36  0  0  0  0  0  0  0  0999 V2000
  -16.8220  -42.4000   28.5140 C   0  0  0  0  0  0  0  0  0  0  0  0
  -17.6100  -42.4130   27.2260 C   0  0  0  0  0  0  0  0  0  0  0  0
  -19.0070  -42.2440   27.2970 C   0  0  0  0  0  0  0  0  0  0  0  0
  -19.7010  -42.2600   26.0910 C   0  0  0  0  0  0  0  0  0  0  0  0
  -19.0550  -42.4210   24.8610 C   0  0  0  0  0  0  0  0  0  0  0  0
  -17.6780  -42.5930   24.7640 C   0  0  0  0  0  0  0  0  0  0  0  0
  -16.9530  -42.5890   25.9730 C   0  0  0  0  0  0  0  0  0  0  0  0
  -15.4550  -42.7690   25.9110 C   0  0  0  0  0  0  0  0  0  0  0  0
  -20.0450  -42.3520   23.8870 N   0  0  0  0  0  0  0  0  0  0  0  0
  -19.8590  -42.4380   22.4370 C   0  0  0  0  0  0  0  0  0  0  0  0
  -20.3440  -41.1630   21.7870 C   0  0  0  0  0  0  0  0  0  0  0  0
  -20.1220  -39.9410   22.4500 C   0  0  0  0  0  0  0  0  0  0  0  0
  -20.5050  -38.7320   21.8720 C   0  0  0  0  0  0  0  0  0  0  0  0
  -21.1140  -38.7250   20.6230 C   0  0  0  0  0  0  0  0  0  0  0  0
  -21.3490  -39.9250   19.9540 C   0  0  0  0  0  0  0  0  0  0  0  0
  -20.9810  -41.1540   20.5250 C   0  0  0  0  0  0  0  0  0  0  0  0
  -21.2540  -42.4150   19.7490 C   0  0  0  0  0  0  0  0  0  0  0  0
  -21.2410  -42.2020   24.4790 C   0  0  0  0  0  0  0  0  0  0  0  0
  -21.0600  -42.1280   25.8060 N   0  0  0  0  0  0  0  0  0  0  0  0
  -22.1360  -41.9330   26.8000 C   0  0  0  0  0  0  0  0  0  0  0  0
  -22.9750  -43.2010   26.8990 C   0  0  0  0  0  0  0  0  0  0  0  0
  -22.4830  -44.2820   27.6560 C   0  0  0  0  0  0  0  0  0  0  0  0
  -23.1940  -45.4780   27.7440 C   0  0  0  0  0  0  0  0  0  0  0  0
  -24.4070  -45.6180   27.0730 C   0  0  0  0  0  0  0  0  0  0  0  0
  -24.9080  -44.5620   26.3170 C   0  0  0  0  0  0  0  0  0  0  0  0
  -24.1990  -43.3620   26.2280 C   0  0  0  0  0  0  0  0  0  0  0  0
  -22.8890  -40.6410   26.5170 C   0  0  0  0  0  0  0  0  0  0  0  0
  -23.2920  -39.8380   27.6010 C   0  0  0  0  0  0  0  0  0  0  0  0
  -23.9960  -38.6520   27.3920 C   0  0  0  0  0  0  0  0  0  0  0  0
  -24.3150  -38.2500   26.0980 C   0  0  0  0  0  0  0  0  0  0  0  0
  -23.9360  -39.0350   25.0130 C   0  0  0  0  0  0  0  0  0  0  0  0
  -23.2310  -40.2240   25.2190 C   0  0  0  0  0  0  0  0  0  0  0  0
  1  2  1  0
  2  3  2  0
  3  4  1  0
  4  5  2  0
  5  6  1  0
  6  7  2  0
  7  8  1  0
  5  9  1  0
  9 10  1  0
 10 11  1  0
 11 12  2  0
 12 13  1  0
 13 14  2  0
 14 15  1  0
 15 16  2  0
 16 17  1  0
  9 18  2  0
 18 19  1  0
 19 20  1  0
 20 21  1  0
 21 22  2  0
 22 23  1  0
 23 24  2  0
 24 25  1  0
 25 26  2  0
 20 27  1  0
 27 28  2  0
 28 29  1  0
 29 30  2  0
 30 31  1  0
 31 32  2  0
  7  2  1  0
 16 11  1  0
 26 21  1  0
 32 27  1  0
 19  4  1  0
M  CHG  1   9   1
M  END
$$$$
