JPCDBTHAWPVJLV-UHFFFAOYSA-N_4BDS_m7
     RDKit          3D

 34 38  0  0  0  0  0  0  0  0999 V2000
  141.1920  117.5640   42.0950 C   0  0  0  0  0  0  0  0  0  0  0  0
  139.8730  117.5780   41.5610 O   0  0  0  0  0  0  0  0  0  0  0  0
  139.2700  116.3650   41.3710 C   0  0  0  0  0  0  0  0  0  0  0  0
  137.8830  116.3730   41.5450 C   0  0  0  0  0  0  0  0  0  0  0  0
  137.1410  115.2060   41.3810 C   0  0  0  0  0  0  0  0  0  0  0  0
  137.7830  114.0170   41.0440 C   0  0  0  0  0  0  0  0  0  0  0  0
  139.1750  113.9840   40.8710 C   0  0  0  0  0  0  0  0  0  0  0  0
  139.8670  112.6840   40.5210 C   0  0  0  0  0  0  0  0  0  0  0  0
  139.2010  111.9520   39.4320 N   0  0  0  0  0  0  0  0  0  0  0  0
  139.4970  112.5500   38.1130 C   0  0  0  0  0  0  0  0  0  0  0  0
  138.8690  111.7480   36.9490 C   0  0  0  0  0  0  0  0  0  0  0  0
  139.2950  110.3320   36.9440 N   0  0  0  0  0  0  0  0  0  0  0  0
  138.6350  109.5600   35.8800 C   0  0  0  0  0  0  0  0  0  0  0  0
  137.5850  108.5660   36.3860 C   0  0  0  0  0  0  0  0  0  0  0  0
  136.1610  109.1090   36.2840 C   0  0  0  0  0  0  0  0  0  0  0  0
  135.6180  109.3320   37.5890 O   0  0  0  0  0  0  0  0  0  0  0  0
  135.2720  110.6030   37.9450 C   0  0  0  0  0  0  0  0  0  0  0  0
  134.9250  110.7590   39.2890 C   0  0  0  0  0  0  0  0  0  0  0  0
  134.5370  112.0060   39.7950 C   0  0  0  0  0  0  0  0  0  0  0  0
  134.4770  113.1280   38.9630 C   0  0  0  0  0  0  0  0  0  0  0  0
  134.0760  114.4680   39.4170 C   0  0  0  0  0  0  0  0  0  0  0  0
  134.0850  115.4880   38.5360 C   0  0  0  0  0  0  0  0  0  0  0  0
  134.4450  115.2970   37.1080 C   0  0  0  0  0  0  0  0  0  0  0  0
  134.4230  116.2260   36.3070 O   0  0  0  0  0  0  0  0  0  0  0  0
  134.7990  114.0190   36.7140 O   0  0  0  0  0  0  0  0  0  0  0  0
  134.8260  112.9480   37.6250 C   0  0  0  0  0  0  0  0  0  0  0  0
  135.2170  111.7100   37.1050 C   0  0  0  0  0  0  0  0  0  0  0  0
  133.7390  116.9080   38.9170 C   0  0  0  0  0  0  0  0  0  0  0  0
  133.7140  117.1430   40.4260 C   0  0  0  0  0  0  0  0  0  0  0  0
  132.9870  116.0110   41.1360 C   0  0  0  0  0  0  0  0  0  0  0  0
  133.6620  114.6660   40.8590 C   0  0  0  0  0  0  0  0  0  0  0  0
  138.9900  109.7430   38.2660 C   0  0  0  0  0  0  0  0  0  0  0  0
  139.6280  110.5410   39.4250 C   0  0  0  0  0  0  0  0  0  0  0  0
  139.9130  115.1700   41.0370 C   0  0  0  0  0  0  0  0  0  0  0  0
  1  2  1  0
  2  3  1  0
  3  4  2  0
  4  5  1  0
  5  6  2  0
  6  7  1  0
  7  8  1  0
  8  9  1  0
  9 10  1  0
 10 11  1  0
 11 12  1  0
 12 13  1  0
 13 14  1  0
 14 15  1  0
 15 16  1  0
 16 17  1  0
 17 18  2  0
 18 19  1  0
 19 20  2  0
 20 21  1  0
 21 22  2  0
 22 23  1  0
 23 24  2  0
 23 25  1  0
 25 26  1  0
 26 27  2  0
 22 28  1  0
 28 29  1  0
 29 30  1  0
 30 31  1  0
 12 32  1  0
 32 33  1  0
  7 34  2  0
 34  3  1  0
 33  9  1  0
 27 17  1  0
 26 20  1  0
 31 21  1  0
M  END
$$$$
