JPJAUHSLJCUGAH-UHFFFAOYSA-N_3RCD_m9
     RDKit          3D

 37 40  0  0  0  0  0  0  0  0999 V2000
   12.1790    2.7800   27.3190 C   0  0  0  0  0  0  0  0  0  0  0  0
   13.5060    2.5640   28.0200 C   0  0  0  0  0  0  0  0  0  0  0  0
   14.4590    2.1310   27.0420 O   0  0  0  0  0  0  0  0  0  0  0  0
   15.7430    2.4240   27.3520 C   0  0  0  0  0  0  0  0  0  0  0  0
   16.2140    2.5610   28.4690 O   0  0  0  0  0  0  0  0  0  0  0  0
   16.5160    2.6380   26.1120 C   0  0  0  0  0  0  0  0  0  0  0  0
   17.1550    1.6350   25.4640 C   0  0  0  0  0  0  0  0  0  0  0  0
   17.1760    0.1920   25.9550 C   0  0  0  0  0  0  0  0  0  0  0  0
   18.0980    0.0460   26.9490 F   0  0  0  0  0  0  0  0  0  0  0  0
   15.9940   -0.2250   26.4680 F   0  0  0  0  0  0  0  0  0  0  0  0
   17.5360   -0.6730   24.9760 F   0  0  0  0  0  0  0  0  0  0  0  0
   17.8960    1.9430   24.3140 N   0  0  0  0  0  0  0  0  0  0  0  0
   18.1090    3.2260   23.8470 C   0  0  0  0  0  0  0  0  0  0  0  0
   17.5160    4.2720   24.4560 C   0  0  0  0  0  0  0  0  0  0  0  0
   17.8480    5.6630   24.0390 C   0  0  0  0  0  0  0  0  0  0  0  0
   17.4220    6.6230   24.6790 O   0  0  0  0  0  0  0  0  0  0  0  0
   18.7900    5.8740   22.8710 C   0  0  0  0  0  0  0  0  0  0  0  0
   18.8100    4.6970   21.8840 C   0  0  0  0  0  0  0  0  0  0  0  0
   19.9660    4.8920   20.8860 C   0  0  0  0  0  0  0  0  0  0  0  0
   17.4930    4.6450   21.0810 C   0  0  0  0  0  0  0  0  0  0  0  0
   19.0310    3.3830   22.6610 C   0  0  0  0  0  0  0  0  0  0  0  0
   16.5500    4.0790   25.6170 C   0  0  1  0  0  0  0  0  0  0  0  0
   15.1360    4.5430   25.2470 C   0  0  0  0  0  0  0  0  0  0  0  0
   14.5040    5.5350   26.0160 C   0  0  0  0  0  0  0  0  0  0  0  0
   13.2120    5.9600   25.7080 C   0  0  0  0  0  0  0  0  0  0  0  0
   12.5450    5.3980   24.6170 C   0  0  0  0  0  0  0  0  0  0  0  0
   10.8950    5.9400   24.2330 S   0  0  0  0  0  0  0  0  0  0  0  0
   10.4160    5.1340   23.1220 O   0  0  0  0  0  0  0  0  0  0  0  0
   10.1530    5.9760   25.4800 O   0  0  0  0  0  0  0  0  0  0  0  0
   11.0510    7.6090   23.6420 C   0  0  0  0  0  0  0  0  0  0  0  0
   12.2470    8.0280   23.0520 C   0  0  0  0  0  0  0  0  0  0  0  0
   12.3640    9.3410   22.5990 C   0  0  0  0  0  0  0  0  0  0  0  0
   11.2960   10.2280   22.7460 C   0  0  0  0  0  0  0  0  0  0  0  0
   10.1090    9.8100   23.3500 C   0  0  0  0  0  0  0  0  0  0  0  0
    9.9840    8.4970   23.8050 C   0  0  0  0  0  0  0  0  0  0  0  0
   13.1450    4.3990   23.8500 C   0  0  0  0  0  0  0  0  0  0  0  0
   14.4380    3.9770   24.1620 C   0  0  0  0  0  0  0  0  0  0  0  0
  1  2  1  0
  2  3  1  0
  3  4  1  0
  4  5  2  0
  4  6  1  0
  6  7  2  0
  7  8  1  0
  8  9  1  0
  8 10  1  0
  8 11  1  0
  7 12  1  0
 12 13  1  0
 13 14  2  0
 14 15  1  0
 15 16  2  0
 15 17  1  0
 17 18  1  0
 18 19  1  0
 18 20  1  0
 18 21  1  0
 14 22  1  0
 22 23  1  6
 23 24  2  0
 24 25  1  0
 25 26  2  0
 26 27  1  0
 27 28  2  0
 27 29  2  0
 27 30  1  0
 30 31  2  0
 31 32  1  0
 32 33  2  0
 33 34  1  0
 34 35  2  0
 26 36  1  0
 36 37  2  0
 22  6  1  0
 37 23  1  0
 21 13  1  0
 35 30  1  0
M  END
$$$$
