JPMPBRCMWMZEJM-NRFANRHFSA-N_5U3Q_m1
     RDKit          3D

 31 34  0  0  0  0  0  0  0  0999 V2000
   45.0540  -42.6660   97.3590 C   0  0  0  0  0  0  0  0  0  0  0  0
   44.2290  -41.7370   98.1990 C   0  0  0  0  0  0  0  0  0  0  0  0
   43.4140  -40.7890   97.5960 C   0  0  0  0  0  0  0  0  0  0  0  0
   42.6620  -39.9490   98.4060 C   0  0  0  0  0  0  0  0  0  0  0  0
   42.7490  -40.0760   99.7900 C   0  0  0  0  0  0  0  0  0  0  0  0
   43.5920  -41.0440  100.3360 C   0  0  0  0  0  0  0  0  0  0  0  0
   43.7450  -41.2500  101.7920 C   0  0  0  0  0  0  0  0  0  0  0  0
   43.0400  -40.4860  102.7400 C   0  0  0  0  0  0  0  0  0  0  0  0
   43.1910  -40.6990  104.1180 C   0  0  0  0  0  0  0  0  0  0  0  0
   44.0600  -41.6820  104.5860 C   0  0  0  0  0  0  0  0  0  0  0  0
   44.2990  -41.9920  105.8950 O   0  0  0  0  0  0  0  0  0  0  0  0
   45.0440  -43.1850  106.1550 C   0  0  0  0  0  0  0  0  0  0  0  0
   45.0280  -43.4200  107.6630 C   0  0  0  0  0  0  0  0  0  0  0  0
   45.4030  -42.1660  108.4440 C   0  0  0  0  0  0  0  0  0  0  0  0
   46.8220  -42.0250  108.4360 O   0  0  0  0  0  0  0  0  0  0  0  0
   47.3230  -40.7650  108.2490 C   0  0  0  0  0  0  0  0  0  0  0  0
   46.9080  -39.8270  109.2090 C   0  0  0  0  0  0  0  0  0  0  0  0
   47.3380  -38.4970  109.1610 C   0  0  0  0  0  0  0  0  0  0  0  0
   48.1770  -38.1130  108.1280 C   0  0  0  0  0  0  0  0  0  0  0  0
   48.5940  -39.0460  107.1710 C   0  0  0  0  0  0  0  0  0  0  0  0
   48.1820  -40.3710  107.2200 C   0  0  0  0  0  0  0  0  0  0  0  0
   49.5330  -38.4220  106.1870 C   0  0  0  0  0  0  0  0  0  0  0  0
   49.2220  -36.9340  106.3880 C   0  0  0  0  0  0  0  0  0  0  0  0
   48.8080  -36.7680  107.8700 C   0  0  1  0  0  0  0  0  0  0  0  0
   47.8800  -35.5760  108.1000 C   0  0  0  0  0  0  0  0  0  0  0  0
   48.3150  -34.7450  109.2750 C   0  0  0  0  0  0  0  0  0  0  0  0
   47.6650  -34.4580  110.2640 O   0  0  0  0  0  0  0  0  0  0  0  0
   49.5740  -34.2870  109.1270 O   0  0  0  0  0  0  0  0  0  0  0  0
   44.7780  -42.4420  103.6640 C   0  0  0  0  0  0  0  0  0  0  0  0
   44.6240  -42.2270  102.2890 C   0  0  0  0  0  0  0  0  0  0  0  0
   44.3210  -41.8730   99.5430 N   0  0  0  0  0  0  0  0  0  0  0  0
  1  2  1  0
  2  3  2  0
  3  4  1  0
  4  5  2  0
  5  6  1  0
  6  7  1  0
  7  8  2  0
  8  9  1  0
  9 10  2  0
 10 11  1  0
 11 12  1  0
 12 13  1  0
 13 14  1  0
 14 15  1  0
 15 16  1  0
 16 17  2  0
 17 18  1  0
 18 19  2  0
 19 20  1  0
 20 21  2  0
 20 22  1  0
 22 23  1  0
 23 24  1  0
 24 25  1  6
 25 26  1  0
 26 27  2  0
 26 28  1  0
 10 29  1  0
 29 30  2  0
  6 31  2  0
 31  2  1  0
 30  7  1  0
 21 16  1  0
 24 19  1  0
M  END
$$$$
