JQKDWSJGLLIFBM-UBHSHLNASA-N_6N7A_m4
     RDKit          3D

 29 33  0  0  0  0  0  0  0  0999 V2000
    4.4930  -25.2920   20.5950 O   0  0  0  0  0  0  0  0  0  0  0  0
    4.8350  -25.2490   21.7670 C   0  0  0  0  0  0  0  0  0  0  0  0
    5.5310  -24.2710   22.4200 N   0  0  0  0  0  0  0  0  0  0  0  0
    6.0120  -23.1300   21.8490 C   0  0  0  0  0  0  0  0  0  0  0  0
    7.3650  -22.9610   21.8370 N   0  0  0  0  0  0  0  0  0  0  0  0
    7.5150  -21.8030   21.2380 C   0  0  0  0  0  0  0  0  0  0  0  0
    8.6720  -21.0480   20.9080 C   0  0  0  0  0  0  0  0  0  0  0  0
    8.5350  -19.8660   20.2840 C   0  0  0  0  0  0  0  0  0  0  0  0
    7.2270  -19.3330   19.9340 C   0  0  0  0  0  0  0  0  0  0  0  0
    6.1100  -20.0360   20.2280 C   0  0  0  0  0  0  0  0  0  0  0  0
    4.6870  -19.5880   19.9210 C   0  0  2  0  0  0  0  0  0  0  0  0
    4.6790  -18.5440   18.7870 C   0  0  0  0  0  0  0  0  0  0  0  0
    3.2590  -18.1250   18.4100 C   0  0  0  0  0  0  0  0  0  0  0  0
    2.4760  -17.6150   19.6240 C   0  0  1  0  0  0  0  0  0  0  0  0
    1.1170  -17.2680   19.2460 N   0  0  0  0  0  0  0  0  0  0  0  0
    0.4730  -16.1730   19.7670 C   0  0  0  0  0  0  0  0  0  0  0  0
    0.9790  -15.3890   20.5600 O   0  0  0  0  0  0  0  0  0  0  0  0
   -0.9140  -15.9450   19.3180 C   0  0  2  0  0  0  0  0  0  0  0  0
   -1.7670  -14.9460   20.0860 C   0  0  0  0  0  0  0  0  0  0  0  0
   -2.1060  -16.3850   20.0730 C   0  0  0  0  0  0  0  0  0  0  0  0
   -1.9940  -17.1390   21.2200 F   0  0  0  0  0  0  0  0  0  0  0  0
   -3.2300  -16.8190   19.4090 F   0  0  0  0  0  0  0  0  0  0  0  0
    2.4790  -18.6580   20.7490 C   0  0  0  0  0  0  0  0  0  0  0  0
    3.9040  -19.0470   21.1350 C   0  0  0  0  0  0  0  0  0  0  0  0
    6.2670  -21.2760   20.8880 N   0  0  0  0  0  0  0  0  0  0  0  0
    5.3140  -22.1480   21.2900 N   0  0  0  0  0  0  0  0  0  0  0  0
    4.4390  -26.3660   22.6730 C   0  0  0  0  0  0  0  0  0  0  0  0
    5.1810  -27.6830   22.6650 C   0  0  0  0  0  0  0  0  0  0  0  0
    3.7980  -27.6040   22.0900 C   0  0  0  0  0  0  0  0  0  0  0  0
  1  2  2  0
  2  3  1  0
  3  4  1  0
  4  5  1  0
  5  6  2  0
  6  7  1  0
  7  8  2  0
  8  9  1  0
  9 10  2  0
 11 10  1  6
 11 12  1  0
 12 13  1  0
 13 14  1  0
 14 15  1  1
 15 16  1  0
 16 17  2  0
 18 16  1  1
 18 19  1  0
 19 20  1  0
 20 21  1  0
 20 22  1  0
 14 23  1  0
 23 24  1  0
 10 25  1  0
 25 26  1  0
  2 27  1  0
 27 28  1  0
 28 29  1  0
 26  4  2  0
 29 27  1  0
 25  6  1  0
 24 11  1  0
 20 18  1  0
M  END
$$$$
