JQKDWSJGLLIFBM-YUTCNCBUSA-N_6N7A_m5
     RDKit          3D

 29 33  0  0  0  0  0  0  0  0999 V2000
   10.6080  -25.1530   24.5240 O   0  0  0  0  0  0  0  0  0  0  0  0
   10.2320  -26.0990   25.1950 C   0  0  0  0  0  0  0  0  0  0  0  0
    9.0020  -26.6990   25.2190 N   0  0  0  0  0  0  0  0  0  0  0  0
    7.9410  -26.3590   24.4290 C   0  0  0  0  0  0  0  0  0  0  0  0
    7.0120  -27.3290   24.1850 N   0  0  0  0  0  0  0  0  0  0  0  0
    6.1600  -26.7280   23.3820 C   0  0  0  0  0  0  0  0  0  0  0  0
    4.9770  -27.1840   22.7450 C   0  0  0  0  0  0  0  0  0  0  0  0
    4.3010  -26.3530   21.9310 C   0  0  0  0  0  0  0  0  0  0  0  0
    4.7490  -24.9900   21.6880 C   0  0  0  0  0  0  0  0  0  0  0  0
    5.8670  -24.5270   22.2890 C   0  0  0  0  0  0  0  0  0  0  0  0
    6.4440  -23.1320   22.0960 C   0  0  2  0  0  0  0  0  0  0  0  0
    5.5300  -22.0740   22.7360 C   0  0  0  0  0  0  0  0  0  0  0  0
    6.1230  -20.6680   22.6220 C   0  0  0  0  0  0  0  0  0  0  0  0
    6.5070  -20.2890   21.1840 C   0  0  2  0  0  0  0  0  0  0  0  0
    5.3170  -20.0110   20.3830 N   0  0  0  0  0  0  0  0  0  0  0  0
    5.3340  -19.1100   19.3450 C   0  0  0  0  0  0  0  0  0  0  0  0
    6.3240  -18.5040   18.9630 O   0  0  0  0  0  0  0  0  0  0  0  0
    4.0540  -18.9430   18.6340 C   0  0  2  0  0  0  0  0  0  0  0  0
    3.8000  -17.6430   17.8800 C   0  0  0  0  0  0  0  0  0  0  0  0
    3.0220  -17.9800   19.0890 C   0  0  0  0  0  0  0  0  0  0  0  0
    1.6910  -18.3110   18.9910 F   0  0  0  0  0  0  0  0  0  0  0  0
    3.1830  -17.2860   20.2660 F   0  0  0  0  0  0  0  0  0  0  0  0
    7.3770  -21.3760   20.5340 C   0  0  0  0  0  0  0  0  0  0  0  0
    6.7440  -22.7640   20.6300 C   0  0  0  0  0  0  0  0  0  0  0  0
    6.5690  -25.4110   23.1420 N   0  0  0  0  0  0  0  0  0  0  0  0
    7.7050  -25.1890   23.8430 N   0  0  0  0  0  0  0  0  0  0  0  0
   11.1970  -26.7540   26.1260 C   0  0  0  0  0  0  0  0  0  0  0  0
   12.2760  -27.6600   25.5770 C   0  0  0  0  0  0  0  0  0  0  0  0
   12.6480  -26.3340   26.1730 C   0  0  0  0  0  0  0  0  0  0  0  0
  1  2  2  0
  2  3  1  0
  3  4  1  0
  4  5  1  0
  5  6  2  0
  6  7  1  0
  7  8  2  0
  8  9  1  0
  9 10  2  0
 11 10  1  1
 11 12  1  0
 12 13  1  0
 13 14  1  0
 14 15  1  1
 15 16  1  0
 16 17  2  0
 18 16  1  1
 18 19  1  0
 19 20  1  0
 20 21  1  0
 20 22  1  0
 14 23  1  0
 23 24  1  0
 10 25  1  0
 25 26  1  0
  2 27  1  0
 27 28  1  0
 28 29  1  0
 26  4  2  0
 29 27  1  0
 25  6  1  0
 24 11  1  0
 20 18  1  0
M  END
$$$$
