JRBPESDUWUDPLN-UHFFFAOYSA-N_4UDW_m6
     RDKit          3D

 34 38  0  0  0  0  0  0  0  0999 V2000
  134.5380  -16.9930  168.0360 C   0  0  0  0  0  0  0  0  0  0  0  0
  135.0370  -18.3400  167.5470 C   0  0  0  0  0  0  0  0  0  0  0  0
  136.1680  -18.7840  168.0040 N   0  0  0  0  0  0  0  0  0  0  0  0
  134.2900  -19.0700  166.6440 N   0  0  0  0  0  0  0  0  0  0  0  0
  132.9300  -18.7420  166.2250 C   0  0  0  0  0  0  0  0  0  0  0  0
  131.9680  -19.7650  166.8270 C   0  0  0  0  0  0  0  0  0  0  0  0
  132.3640  -21.1980  166.4430 C   0  0  0  0  0  0  0  0  0  0  0  0
  132.1900  -21.3940  165.0320 O   0  0  0  0  0  0  0  0  0  0  0  0
  130.9820  -21.0800  164.4680 C   0  0  0  0  0  0  0  0  0  0  0  0
  131.0570  -20.1460  163.4300 C   0  0  0  0  0  0  0  0  0  0  0  0
  129.9190  -19.7130  162.7370 C   0  0  0  0  0  0  0  0  0  0  0  0
  128.6930  -20.2520  163.1380 C   0  0  0  0  0  0  0  0  0  0  0  0
  128.5880  -21.1640  164.1800 C   0  0  0  0  0  0  0  0  0  0  0  0
  129.7430  -21.5880  164.8610 C   0  0  0  0  0  0  0  0  0  0  0  0
  127.2840  -21.5230  164.3920 N   0  0  0  0  0  0  0  0  0  0  0  0
  126.5760  -20.8650  163.4970 C   0  0  0  0  0  0  0  0  0  0  0  0
  125.1010  -20.9560  163.3490 C   0  0  0  0  0  0  0  0  0  0  0  0
  127.3940  -20.0890  162.7010 N   0  0  0  0  0  0  0  0  0  0  0  0
  126.9660  -19.2160  161.6170 C   0  0  0  0  0  0  0  0  0  0  0  0
  127.0520  -17.7550  161.9890 C   0  0  0  0  0  0  0  0  0  0  0  0
  128.0060  -16.9250  161.3860 C   0  0  0  0  0  0  0  0  0  0  0  0
  128.0950  -15.5760  161.7330 C   0  0  0  0  0  0  0  0  0  0  0  0
  127.2270  -15.0180  162.6840 C   0  0  0  0  0  0  0  0  0  0  0  0
  127.3120  -13.6640  163.0450 C   0  0  0  0  0  0  0  0  0  0  0  0
  126.4380  -13.1210  163.9880 C   0  0  0  0  0  0  0  0  0  0  0  0
  125.4660  -13.9310  164.5770 C   0  0  0  0  0  0  0  0  0  0  0  0
  124.5110  -13.3520  165.5570 C   0  0  0  0  0  0  0  0  0  0  0  0
  123.5090  -14.0280  166.0250 N   0  0  0  0  0  0  0  0  0  0  0  0
  124.6760  -12.0820  165.9980 N   0  0  0  0  0  0  0  0  0  0  0  0
  125.3700  -15.2820  164.2310 C   0  0  0  0  0  0  0  0  0  0  0  0
  126.2470  -15.8390  163.2870 C   0  0  0  0  0  0  0  0  0  0  0  0
  126.1730  -17.1970  162.9320 C   0  0  0  0  0  0  0  0  0  0  0  0
  133.8440  -21.4610  166.7610 C   0  0  0  0  0  0  0  0  0  0  0  0
  134.7430  -20.3800  166.1630 C   0  0  0  0  0  0  0  0  0  0  0  0
  1  2  1  0
  2  3  2  3
  2  4  1  0
  4  5  1  0
  5  6  1  0
  6  7  1  0
  7  8  1  0
  8  9  1  0
  9 10  2  0
 10 11  1  0
 11 12  2  0
 12 13  1  0
 13 14  2  0
 13 15  1  0
 15 16  2  0
 16 17  1  0
 16 18  1  0
 18 19  1  0
 19 20  1  0
 20 21  2  0
 21 22  1  0
 22 23  2  0
 23 24  1  0
 24 25  2  0
 25 26  1  0
 26 27  1  0
 27 28  2  3
 27 29  1  0
 26 30  2  0
 30 31  1  0
 31 32  2  0
  7 33  1  0
 33 34  1  0
 34  4  1  0
 14  9  1  0
 32 20  1  0
 18 12  1  0
 31 23  1  0
M  END
$$$$
