JROFGZPOBKIAEW-HAQNSBGRSA-N_4L23_m3
     RDKit          3D

 30 34  0  0  0  0  0  0  0  0999 V2000
   38.5810   50.4110   41.7030 C   0  0  0  0  0  0  0  0  0  0  0  0
   38.4290   50.2620   40.2970 O   0  0  0  0  0  0  0  0  0  0  0  0
   38.8130   49.0660   39.7630 C   0  0  0  0  0  0  0  0  0  0  0  0
   40.1150   48.7030   39.3930 C   0  0  0  0  0  0  0  0  0  0  0  0
   40.3950   47.4420   38.8610 C   0  0  0  0  0  0  0  0  0  0  0  0
   39.3810   46.4980   38.6760 C   0  0  0  0  0  0  0  0  0  0  0  0
   38.0620   46.8390   39.0220 C   0  0  0  0  0  0  0  0  0  0  0  0
   36.8140   46.1480   38.9740 C   0  0  0  0  0  0  0  0  0  0  0  0
   35.8440   47.0040   39.4390 C   0  0  0  0  0  0  0  0  0  0  0  0
   34.3200   46.8130   39.6230 C   0  0  0  0  0  0  0  0  0  0  0  0
   33.7930   46.9140   40.8910 N   0  0  0  0  0  0  0  0  0  0  0  0
   32.5280   46.5570   40.7770 C   0  0  0  0  0  0  0  0  0  0  0  0
   31.5260   46.4350   41.8850 C   0  0  2  0  0  0  0  0  0  0  0  0
   32.1170   46.9160   43.2200 C   0  0  0  0  0  0  0  0  0  0  0  0
   31.1210   46.7550   44.3660 C   0  0  0  0  0  0  0  0  0  0  0  0
   30.6270   45.3090   44.4780 C   0  0  1  0  0  0  0  0  0  0  0  0
   29.5780   45.2040   45.5600 C   0  0  0  0  0  0  0  0  0  0  0  0
   29.4810   45.9050   46.5530 O   0  0  0  0  0  0  0  0  0  0  0  0
   28.6820   44.2290   45.3160 O   0  0  0  0  0  0  0  0  0  0  0  0
   30.0460   44.8100   43.1540 C   0  0  0  0  0  0  0  0  0  0  0  0
   31.0340   44.9850   42.0010 C   0  0  0  0  0  0  0  0  0  0  0  0
   32.2280   46.2580   39.4670 N   0  0  0  0  0  0  0  0  0  0  0  0
   31.0660   45.7730   38.9830 N   0  0  0  0  0  0  0  0  0  0  0  0
   31.0670   45.6170   37.6970 C   0  0  0  0  0  0  0  0  0  0  0  0
   32.0730   45.9530   36.8270 N   0  0  0  0  0  0  0  0  0  0  0  0
   33.1880   46.4290   37.3000 C   0  0  0  0  0  0  0  0  0  0  0  0
   34.0950   46.8590   36.3860 N   0  0  0  0  0  0  0  0  0  0  0  0
   33.3330   46.5220   38.7100 C   0  0  0  0  0  0  0  0  0  0  0  0
   36.4670   48.1630   39.8220 N   0  0  0  0  0  0  0  0  0  0  0  0
   37.8160   48.1040   39.5540 C   0  0  0  0  0  0  0  0  0  0  0  0
  1  2  1  0
  2  3  1  0
  3  4  2  0
  4  5  1  0
  5  6  2  0
  6  7  1  0
  7  8  1  0
  8  9  2  0
  9 10  1  0
 10 11  1  0
 11 12  2  0
 13 12  1  1
 13 14  1  0
 14 15  1  0
 15 16  1  0
 16 17  1  6
 17 18  2  0
 17 19  1  0
 16 20  1  0
 20 21  1  0
 12 22  1  0
 22 23  1  0
 23 24  2  0
 24 25  1  0
 25 26  2  0
 26 27  1  0
 26 28  1  0
  9 29  1  0
 29 30  1  0
 30  3  1  0
 30  7  2  0
 28 10  2  0
 21 13  1  0
 28 22  1  0
M  END
$$$$
