JTWPXAPBCSEZRE-UHFFFAOYSA-N_4UDW_m4
     RDKit          3D

 26 29  0  0  0  0  0  0  0  0999 V2000
  136.6870  -20.7950  167.5330 N   0  0  0  0  0  0  0  0  0  0  0  0
  136.8390  -19.5210  167.3580 C   0  0  0  0  0  0  0  0  0  0  0  0
  138.0930  -19.0020  167.3350 N   0  0  0  0  0  0  0  0  0  0  0  0
  135.6330  -18.6540  167.1850 C   0  0  0  0  0  0  0  0  0  0  0  0
  135.2130  -18.3350  165.8810 C   0  0  0  0  0  0  0  0  0  0  0  0
  134.0820  -17.5230  165.7610 C   0  0  0  0  0  0  0  0  0  0  0  0
  133.4120  -17.0270  164.6750 N   0  0  0  0  0  0  0  0  0  0  0  0
  132.3490  -16.2690  165.1110 C   0  0  0  0  0  0  0  0  0  0  0  0
  131.4160  -15.5870  164.2080 C   0  0  0  0  0  0  0  0  0  0  0  0
  131.9010  -15.0650  162.9990 C   0  0  0  0  0  0  0  0  0  0  0  0
  131.0510  -14.4040  162.1080 C   0  0  0  0  0  0  0  0  0  0  0  0
  129.6950  -14.2520  162.4030 C   0  0  0  0  0  0  0  0  0  0  0  0
  129.1850  -14.7630  163.5930 C   0  0  0  0  0  0  0  0  0  0  0  0
  127.8810  -14.6890  164.0160 O   0  0  0  0  0  0  0  0  0  0  0  0
  126.9440  -13.9830  163.1940 C   0  0  1  0  0  0  0  0  0  0  0  0
  125.6210  -14.7440  163.2520 C   0  0  0  0  0  0  0  0  0  0  0  0
  124.8490  -14.0350  164.3460 C   0  0  0  0  0  0  0  0  0  0  0  0
  125.1680  -12.6200  164.1360 N   0  0  0  0  0  0  0  0  0  0  0  0
  126.6010  -12.6080  163.7890 C   0  0  0  0  0  0  0  0  0  0  0  0
  130.0510  -15.4220  164.4860 C   0  0  0  0  0  0  0  0  0  0  0  0
  129.5140  -15.9090  165.6600 O   0  0  0  0  0  0  0  0  0  0  0  0
  132.3150  -16.2620  166.4340 N   0  0  0  0  0  0  0  0  0  0  0  0
  133.3750  -17.0290  166.8480 C   0  0  0  0  0  0  0  0  0  0  0  0
  133.7960  -17.3480  168.1430 C   0  0  0  0  0  0  0  0  0  0  0  0
  134.9250  -18.1600  168.2890 C   0  0  0  0  0  0  0  0  0  0  0  0
  135.3160  -18.4560  169.5410 F   0  0  0  0  0  0  0  0  0  0  0  0
  1  2  2  3
  2  3  1  0
  2  4  1  0
  4  5  2  0
  5  6  1  0
  6  7  1  0
  7  8  1  0
  8  9  1  0
  9 10  2  0
 10 11  1  0
 11 12  2  0
 12 13  1  0
 13 14  1  0
 15 14  1  1
 15 16  1  0
 16 17  1  0
 17 18  1  0
 18 19  1  0
 13 20  2  0
 20 21  1  0
  8 22  2  0
 22 23  1  0
 23 24  1  0
 24 25  2  0
 25 26  1  0
 25  4  1  0
 23  6  2  0
 20  9  1  0
 19 15  1  0
M  END
$$$$
