JTWPXAPBCSEZRE-UHFFFAOYSA-N_4UDW_m6
     RDKit          3D

 26 29  0  0  0  0  0  0  0  0999 V2000
  136.1740  -18.4320  170.2220 N   0  0  0  0  0  0  0  0  0  0  0  0
  135.5280  -19.3110  169.5230 C   0  0  0  0  0  0  0  0  0  0  0  0
  135.3510  -20.5580  170.0290 N   0  0  0  0  0  0  0  0  0  0  0  0
  134.9940  -18.9320  168.1790 C   0  0  0  0  0  0  0  0  0  0  0  0
  134.0470  -17.8960  168.0960 C   0  0  0  0  0  0  0  0  0  0  0  0
  133.5720  -17.5710  166.8230 C   0  0  0  0  0  0  0  0  0  0  0  0
  132.6700  -16.6400  166.3830 N   0  0  0  0  0  0  0  0  0  0  0  0
  132.5580  -16.7350  165.0150 C   0  0  0  0  0  0  0  0  0  0  0  0
  131.6730  -15.8830  164.2120 C   0  0  0  0  0  0  0  0  0  0  0  0
  132.1850  -15.2670  163.0610 C   0  0  0  0  0  0  0  0  0  0  0  0
  131.3820  -14.4440  162.2660 C   0  0  0  0  0  0  0  0  0  0  0  0
  130.0460  -14.2200  162.6040 C   0  0  0  0  0  0  0  0  0  0  0  0
  129.5090  -14.8210  163.7390 C   0  0  0  0  0  0  0  0  0  0  0  0
  128.2210  -14.6930  164.1940 O   0  0  0  0  0  0  0  0  0  0  0  0
  127.2390  -14.1590  163.2980 C   0  0  1  0  0  0  0  0  0  0  0  0
  126.0450  -15.1120  163.3090 C   0  0  0  0  0  0  0  0  0  0  0  0
  125.1100  -14.5000  164.3340 C   0  0  0  0  0  0  0  0  0  0  0  0
  125.2240  -13.0600  164.0920 N   0  0  0  0  0  0  0  0  0  0  0  0
  126.6560  -12.8370  163.8240 C   0  0  0  0  0  0  0  0  0  0  0  0
  130.3290  -15.6430  164.5350 C   0  0  0  0  0  0  0  0  0  0  0  0
  129.7680  -16.2160  165.6580 O   0  0  0  0  0  0  0  0  0  0  0  0
  133.3550  -17.6900  164.5630 N   0  0  0  0  0  0  0  0  0  0  0  0
  133.9860  -18.2140  165.6640 C   0  0  0  0  0  0  0  0  0  0  0  0
  134.9280  -19.2440  165.7500 C   0  0  0  0  0  0  0  0  0  0  0  0
  135.4180  -19.5870  167.0140 C   0  0  0  0  0  0  0  0  0  0  0  0
  136.3220  -20.5800  167.0780 F   0  0  0  0  0  0  0  0  0  0  0  0
  1  2  2  3
  2  3  1  0
  2  4  1  0
  4  5  2  0
  5  6  1  0
  6  7  1  0
  7  8  1  0
  8  9  1  0
  9 10  2  0
 10 11  1  0
 11 12  2  0
 12 13  1  0
 13 14  1  0
 15 14  1  1
 15 16  1  0
 16 17  1  0
 17 18  1  0
 18 19  1  0
 13 20  2  0
 20 21  1  0
  8 22  2  0
 22 23  1  0
 23 24  1  0
 24 25  2  0
 25 26  1  0
 25  4  1  0
 23  6  2  0
 20  9  1  0
 19 15  1  0
M  END
$$$$
