JTWPXAPBCSEZRE-UHFFFAOYSA-N_2JKH_m3
     RDKit          3D

 26 29  0  0  0  0  0  0  0  0999 V2000
   -6.6260   18.4760   27.1220 N   0  0  0  0  0  0  0  0  0  0  0  0
   -7.1570   17.5520   26.3860 C   0  0  0  0  0  0  0  0  0  0  0  0
   -8.5060   17.3970   26.3880 N   0  0  0  0  0  0  0  0  0  0  0  0
   -6.2740   16.6790   25.5520 C   0  0  0  0  0  0  0  0  0  0  0  0
   -5.5360   15.6630   26.1870 C   0  0  0  0  0  0  0  0  0  0  0  0
   -4.7230   14.8690   25.3740 C   0  0  0  0  0  0  0  0  0  0  0  0
   -3.8900   13.8180   25.6470 N   0  0  0  0  0  0  0  0  0  0  0  0
   -3.3130   13.3860   24.4740 C   0  0  0  0  0  0  0  0  0  0  0  0
   -2.3630   12.2700   24.4010 C   0  0  0  0  0  0  0  0  0  0  0  0
   -1.2410   12.3880   23.5670 C   0  0  0  0  0  0  0  0  0  0  0  0
   -0.3100   11.3520   23.4620 C   0  0  0  0  0  0  0  0  0  0  0  0
   -0.4760   10.1740   24.1920 C   0  0  0  0  0  0  0  0  0  0  0  0
   -1.5780   10.0300   25.0310 C   0  0  0  0  0  0  0  0  0  0  0  0
   -1.8720    8.9350   25.8050 O   0  0  0  0  0  0  0  0  0  0  0  0
   -1.3950    8.9150   27.1550 C   0  0  1  0  0  0  0  0  0  0  0  0
   -2.6160    8.8790   28.0720 C   0  0  0  0  0  0  0  0  0  0  0  0
   -2.8050    7.4030   28.3570 C   0  0  0  0  0  0  0  0  0  0  0  0
   -1.4380    6.9010   28.5130 N   0  0  0  0  0  0  0  0  0  0  0  0
   -0.6620    7.6010   27.4720 C   0  0  0  0  0  0  0  0  0  0  0  0
   -2.5120   11.0780   25.1250 C   0  0  0  0  0  0  0  0  0  0  0  0
   -3.5970   10.8990   25.9590 O   0  0  0  0  0  0  0  0  0  0  0  0
   -3.7460   14.1210   23.4630 N   0  0  0  0  0  0  0  0  0  0  0  0
   -4.6140   15.0380   24.0000 C   0  0  0  0  0  0  0  0  0  0  0  0
   -5.3490   16.0490   23.3740 C   0  0  0  0  0  0  0  0  0  0  0  0
   -6.1710   16.8570   24.1650 C   0  0  0  0  0  0  0  0  0  0  0  0
   -6.8690   17.8240   23.5460 F   0  0  0  0  0  0  0  0  0  0  0  0
  1  2  2  3
  2  3  1  0
  2  4  1  0
  4  5  2  0
  5  6  1  0
  6  7  1  0
  7  8  1  0
  8  9  1  0
  9 10  2  0
 10 11  1  0
 11 12  2  0
 12 13  1  0
 13 14  1  0
 15 14  1  6
 15 16  1  0
 16 17  1  0
 17 18  1  0
 18 19  1  0
 13 20  2  0
 20 21  1  0
  8 22  2  0
 22 23  1  0
 23 24  1  0
 24 25  2  0
 25 26  1  0
 25  4  1  0
 23  6  2  0
 20  9  1  0
 19 15  1  0
M  END
$$$$
