JWNPDZNEKVCWMY-VQHVLOKHSA-N_3POZ_m7
     RDKit          3D

 40 43  0  0  0  0  0  0  0  0999 V2000
   13.8580   34.5510   15.5390 C   0  0  0  0  0  0  0  0  0  0  0  0
   14.7990   34.5100   16.7240 C   0  0  0  0  0  0  0  0  0  0  0  0
   15.9460   33.7410   16.3580 O   0  0  0  0  0  0  0  0  0  0  0  0
   17.1780   34.3330   16.5330 C   0  0  0  0  0  0  0  0  0  0  0  0
   17.8230   34.4870   17.7630 C   0  0  0  0  0  0  0  0  0  0  0  0
   19.0610   35.1050   17.8720 C   0  0  0  0  0  0  0  0  0  0  0  0
   19.5980   35.2340   19.0940 N   0  0  0  0  0  0  0  0  0  0  0  0
   20.7980   35.8510   19.2050 C   0  0  0  0  0  0  0  0  0  0  0  0
   21.5100   36.3630   18.1370 C   0  0  0  0  0  0  0  0  0  0  0  0
   22.7930   36.9460   18.3820 C   0  0  0  0  0  0  0  0  0  0  0  0
   23.8330   37.3980   18.6250 N   0  0  0  0  0  0  0  0  0  0  0  0
   20.9590   36.2330   16.8550 C   0  0  0  0  0  0  0  0  0  0  0  0
   21.6110   36.7620   15.7150 N   0  0  0  0  0  0  0  0  0  0  0  0
   22.3630   36.0940   14.7310 C   0  0  0  0  0  0  0  0  0  0  0  0
   22.8890   34.8290   15.0170 C   0  0  0  0  0  0  0  0  0  0  0  0
   23.6620   34.1310   14.0800 C   0  0  0  0  0  0  0  0  0  0  0  0
   23.9230   34.6870   12.8270 C   0  0  0  0  0  0  0  0  0  0  0  0
   24.6450   34.0770   11.8390 O   0  0  0  0  0  0  0  0  0  0  0  0
   24.6840   32.6490   11.8260 C   0  0  0  0  0  0  0  0  0  0  0  0
   26.1050   32.1360   11.9470 C   0  0  0  0  0  0  0  0  0  0  0  0
   26.7330   31.4530   10.9050 C   0  0  0  0  0  0  0  0  0  0  0  0
   28.0420   31.0070   11.0780 C   0  0  0  0  0  0  0  0  0  0  0  0
   28.6980   31.2620   12.2760 C   0  0  0  0  0  0  0  0  0  0  0  0
   28.0130   31.9620   13.2550 C   0  0  0  0  0  0  0  0  0  0  0  0
   26.7440   32.4060   13.1180 N   0  0  0  0  0  0  0  0  0  0  0  0
   23.4240   35.9670   12.5460 C   0  0  0  0  0  0  0  0  0  0  0  0
   23.7150   36.7330   11.0190 Cl  0  0  0  0  0  0  0  0  0  0  0  0
   22.6570   36.6620   13.4880 C   0  0  0  0  0  0  0  0  0  0  0  0
   19.6980   35.5870   16.7080 C   0  0  0  0  0  0  0  0  0  0  0  0
   19.0410   35.4330   15.4650 C   0  0  0  0  0  0  0  0  0  0  0  0
   17.7940   34.8150   15.3660 C   0  0  0  0  0  0  0  0  0  0  0  0
   17.0920   34.6680   14.1490 N   0  0  0  0  0  0  0  0  0  0  0  0
   17.1980   33.6450   13.2340 C   0  0  0  0  0  0  0  0  0  0  0  0
   17.8600   32.6190   13.3450 O   0  0  0  0  0  0  0  0  0  0  0  0
   16.3970   33.9070   12.0070 C   0  0  0  0  0  0  0  0  0  0  0  0
   17.0240   34.0120   10.8230 C   0  0  0  0  0  0  0  0  0  0  0  0
   16.4080   34.2670    9.4780 C   0  0  0  0  0  0  0  0  0  0  0  0
   16.9050   33.4260    8.3800 N   0  0  0  0  0  0  0  0  0  0  0  0
   17.6750   32.2830    8.8910 C   0  0  0  0  0  0  0  0  0  0  0  0
   15.7750   32.9270    7.5860 C   0  0  0  0  0  0  0  0  0  0  0  0
  1  2  1  0
  2  3  1  0
  3  4  1  0
  4  5  2  0
  5  6  1  0
  6  7  2  0
  7  8  1  0
  8  9  2  0
  9 10  1  0
 10 11  3  0
  9 12  1  0
 12 13  1  0
 13 14  1  0
 14 15  2  0
 15 16  1  0
 16 17  2  0
 17 18  1  0
 18 19  1  0
 19 20  1  0
 20 21  2  0
 21 22  1  0
 22 23  2  0
 23 24  1  0
 24 25  2  0
 17 26  1  0
 26 27  1  0
 26 28  2  0
 12 29  2  0
 29 30  1  0
 30 31  2  0
 31 32  1  0
 32 33  1  0
 33 34  2  0
 33 35  1  0
 35 36  2  0
 36 37  1  0
 37 38  1  0
 38 39  1  0
 38 40  1  0
 31  4  1  0
 29  6  1  0
 28 14  1  0
 25 20  1  0
M  END
$$$$
