JZMKNXICJRCGJX-PKOBYXMFSA-N_4BDS_m7
     RDKit          3D

 24 27  0  0  0  0  0  0  0  0999 V2000
  134.7570  112.8280   39.7240 C   0  0  0  0  0  0  0  0  0  0  0  0
  135.1230  111.6220   38.9000 C   0  0  0  0  0  0  0  0  0  0  0  0
  135.3810  110.4120   39.5690 C   0  0  0  0  0  0  0  0  0  0  0  0
  135.7250  109.2630   38.8610 C   0  0  0  0  0  0  0  0  0  0  0  0
  135.8140  109.3090   37.4750 C   0  0  0  0  0  0  0  0  0  0  0  0
  135.5610  110.5030   36.7950 C   0  0  0  0  0  0  0  0  0  0  0  0
  135.2150  111.6680   37.4900 C   0  0  0  0  0  0  0  0  0  0  0  0
  134.9540  112.8880   36.8320 N   0  0  0  0  0  0  0  0  0  0  0  0
  133.7500  113.4240   36.4560 C   0  0  0  0  0  0  0  0  0  0  0  0
  132.6360  112.9460   36.6140 O   0  0  0  0  0  0  0  0  0  0  0  0
  134.0060  114.6470   35.8380 O   0  0  0  0  0  0  0  0  0  0  0  0
  134.0730  115.7790   36.6680 C   0  0  0  0  0  0  0  0  0  0  0  0
  133.9430  117.0310   36.0490 C   0  0  0  0  0  0  0  0  0  0  0  0
  133.9540  118.1920   36.8250 C   0  0  0  0  0  0  0  0  0  0  0  0
  134.0880  118.0560   38.1940 C   0  0  0  0  0  0  0  0  0  0  0  0
  134.1940  116.8150   38.8060 C   0  0  0  0  0  0  0  0  0  0  0  0
  134.1770  115.6510   38.0540 C   0  0  0  0  0  0  0  0  0  0  0  0
  134.2990  116.9980   40.2830 C   0  0  1  0  0  0  0  0  0  0  0  0
  133.0590  116.4730   40.9990 C   0  0  0  0  0  0  0  0  0  0  0  0
  135.6020  116.5000   40.8870 C   0  0  0  0  0  0  0  0  0  0  0  0
  136.5690  117.6250   40.5850 C   0  0  0  0  0  0  0  0  0  0  0  0
  135.8080  118.8300   40.7130 O   0  0  0  0  0  0  0  0  0  0  0  0
  134.4460  118.5330   40.3460 C   0  0  1  0  0  0  0  0  0  0  0  0
  134.1220  119.1120   39.0610 O   0  0  0  0  0  0  0  0  0  0  0  0
  1  2  1  0
  2  3  2  0
  3  4  1  0
  4  5  2  0
  5  6  1  0
  6  7  2  0
  7  8  1  0
  8  9  1  0
  9 10  2  0
  9 11  1  0
 11 12  1  0
 12 13  2  0
 13 14  1  0
 14 15  2  0
 15 16  1  0
 16 17  2  0
 16 18  1  0
 18 19  1  1
 18 20  1  0
 20 21  1  0
 21 22  1  0
 23 22  1  6
 23 24  1  0
  7  2  1  0
 17 12  1  0
 23 18  1  0
 24 15  1  0
M  END
$$$$
