KAGLXEKIFXHEMB-UHFFFAOYSA-N_6LXA_m7
     RDKit          3D

 38 42  0  0  0  0  0  0  0  0999 V2000
   15.6740    2.8480   -1.2580 O   0  0  0  0  0  0  0  0  0  0  0  0
   15.7200    1.7450   -1.7740 C   0  0  0  0  0  0  0  0  0  0  0  0
   16.4280    0.7570   -1.1870 O   0  0  0  0  0  0  0  0  0  0  0  0
   15.0510    1.2760   -3.0440 C   0  0  0  0  0  0  0  0  0  0  0  0
   13.5410    1.2870   -2.9760 C   0  0  0  0  0  0  0  0  0  0  0  0
   12.8890    1.2770   -1.7350 C   0  0  0  0  0  0  0  0  0  0  0  0
   11.4960    1.2640   -1.6790 C   0  0  0  0  0  0  0  0  0  0  0  0
   10.7050    1.2550   -0.1490 Cl  0  0  0  0  0  0  0  0  0  0  0  0
   10.7420    1.2520   -2.8490 C   0  0  0  0  0  0  0  0  0  0  0  0
   11.3780    1.2470   -4.0930 C   0  0  0  0  0  0  0  0  0  0  0  0
   10.5290    1.2210   -5.1630 O   0  0  0  0  0  0  0  0  0  0  0  0
    9.1260    1.2990   -4.8970 C   0  0  0  0  0  0  0  0  0  0  0  0
    8.5360    2.4460   -5.7280 C   0  0  0  0  0  0  0  0  0  0  0  0
    8.6420    3.8710   -5.0770 C   0  0  0  0  0  0  0  0  0  0  0  0
    8.3510    3.7030   -3.6210 N   0  0  0  0  0  0  0  0  0  0  0  0
    7.0910    4.2610   -3.1220 C   0  0  0  0  0  0  0  0  0  0  0  0
    7.1930    4.0160   -1.6280 C   0  0  0  0  0  0  0  0  0  0  0  0
    8.6780    4.1380   -1.3190 C   0  0  0  0  0  0  0  0  0  0  0  0
    9.3720    4.1640   -2.6770 C   0  0  0  0  0  0  0  0  0  0  0  0
   10.0560    4.4790   -5.2900 C   0  0  0  0  0  0  0  0  0  0  0  0
   10.3930    4.7170   -6.7610 C   0  0  0  0  0  0  0  0  0  0  0  0
    9.3730    5.5640   -7.3870 N   0  0  0  0  0  0  0  0  0  0  0  0
    9.7720    6.3770   -8.4160 C   0  0  0  0  0  0  0  0  0  0  0  0
    9.6220    7.6880   -8.3910 N   0  0  0  0  0  0  0  0  0  0  0  0
   10.0900    8.2650   -9.5530 C   0  0  0  0  0  0  0  0  0  0  0  0
   10.1110    9.6260   -9.8910 C   0  0  0  0  0  0  0  0  0  0  0  0
   10.6210    9.9810  -11.1420 C   0  0  0  0  0  0  0  0  0  0  0  0
   11.0920    8.9890  -12.0130 C   0  0  0  0  0  0  0  0  0  0  0  0
   11.6780    9.4190  -13.3550 C   0  0  0  0  0  0  0  0  0  0  0  0
   11.2190    8.6590  -14.3900 F   0  0  0  0  0  0  0  0  0  0  0  0
   13.0400    9.3070  -13.3980 F   0  0  0  0  0  0  0  0  0  0  0  0
   11.4100   10.7140  -13.6860 F   0  0  0  0  0  0  0  0  0  0  0  0
   11.0980    7.6610  -11.7050 N   0  0  0  0  0  0  0  0  0  0  0  0
   10.5900    7.3720  -10.4880 C   0  0  0  0  0  0  0  0  0  0  0  0
   10.4910    5.7890   -9.8870 S   0  0  0  0  0  0  0  0  0  0  0  0
    7.9850    5.1410   -7.2360 C   0  0  0  0  0  0  0  0  0  0  0  0
    7.6410    4.8320   -5.7750 C   0  0  0  0  0  0  0  0  0  0  0  0
   12.7730    1.2700   -4.1540 C   0  0  0  0  0  0  0  0  0  0  0  0
  1  2  2  0
  2  3  1  0
  2  4  1  0
  4  5  1  0
  5  6  2  0
  6  7  1  0
  7  8  1  0
  7  9  2  0
  9 10  1  0
 10 11  1  0
 11 12  1  0
 12 13  1  0
 13 14  1  0
 14 15  1  0
 15 16  1  0
 16 17  1  0
 17 18  1  0
 18 19  1  0
 14 20  1  0
 20 21  1  0
 21 22  1  0
 22 23  1  0
 23 24  2  0
 24 25  1  0
 25 26  2  0
 26 27  1  0
 27 28  2  0
 28 29  1  0
 29 30  1  0
 29 31  1  0
 29 32  1  0
 28 33  1  0
 33 34  2  0
 34 35  1  0
 22 36  1  0
 36 37  1  0
 10 38  2  0
 38  5  1  0
 37 14  1  0
 19 15  1  0
 35 23  1  0
 34 25  1  0
M  END
$$$$
