KAMXHDXTHDNZTD-UHFFFAOYSA-N_3LXP_m2
     RDKit          3D

 30 34  0  0  0  0  0  0  0  0999 V2000
   -4.1240   33.8410  -30.0620 N   0  0  0  0  0  0  0  0  0  0  0  0
   -4.4610   32.8550  -29.5500 C   0  0  0  0  0  0  0  0  0  0  0  0
   -4.9060   31.6100  -28.9040 C   0  0  0  0  0  0  0  0  0  0  0  0
   -3.8540   30.5000  -28.9820 C   0  0  1  0  0  0  0  0  0  0  0  0
   -4.2720   29.4460  -29.9530 N   0  0  0  0  0  0  0  0  0  0  0  0
   -5.0170   29.6800  -31.0710 C   0  0  0  0  0  0  0  0  0  0  0  0
   -5.2410   28.4450  -31.6300 C   0  0  0  0  0  0  0  0  0  0  0  0
   -4.6250   27.5060  -30.7540 C   0  0  0  0  0  0  0  0  0  0  0  0
   -4.5870   26.0450  -30.9310 C   0  0  0  0  0  0  0  0  0  0  0  0
   -3.8140   25.4170  -30.0060 N   0  0  0  0  0  0  0  0  0  0  0  0
   -3.7370   24.0700  -30.0640 C   0  0  0  0  0  0  0  0  0  0  0  0
   -2.9040   23.4240  -29.0410 C   0  0  0  0  0  0  0  0  0  0  0  0
   -3.0630   23.5150  -27.6290 C   0  0  0  0  0  0  0  0  0  0  0  0
   -2.0560   22.7530  -27.0900 C   0  0  0  0  0  0  0  0  0  0  0  0
   -1.3640   22.2570  -28.1520 N   0  0  0  0  0  0  0  0  0  0  0  0
   -1.8500   22.6430  -29.3420 N   0  0  0  0  0  0  0  0  0  0  0  0
   -4.3980   23.3270  -31.0280 C   0  0  0  0  0  0  0  0  0  0  0  0
   -5.1640   23.9630  -31.9840 C   0  0  0  0  0  0  0  0  0  0  0  0
   -5.7680   23.1940  -32.9090 N   0  0  0  0  0  0  0  0  0  0  0  0
   -6.5030   23.7960  -33.8680 C   0  0  0  0  0  0  0  0  0  0  0  0
   -6.6700   25.1600  -33.9570 C   0  0  0  0  0  0  0  0  0  0  0  0
   -6.0480   25.9500  -32.9980 C   0  0  0  0  0  0  0  0  0  0  0  0
   -5.2740   25.3650  -31.9630 C   0  0  0  0  0  0  0  0  0  0  0  0
   -4.0260   28.1470  -29.7350 N   0  0  0  0  0  0  0  0  0  0  0  0
   -2.3880   30.9640  -29.2410 C   0  0  0  0  0  0  0  0  0  0  0  0
   -2.0760   30.7810  -27.7360 C   0  0  1  0  0  0  0  0  0  0  0  0
   -2.0170   32.0540  -26.8490 C   0  0  0  0  0  0  0  0  0  0  0  0
   -0.7890   32.6530  -26.7910 N   0  0  0  0  0  0  0  0  0  0  0  0
   -2.9580   32.5390  -26.2220 O   0  0  0  0  0  0  0  0  0  0  0  0
   -3.3450   29.9030  -27.6340 C   0  0  0  0  0  0  0  0  0  0  0  0
  1  2  3  0
  2  3  1  0
  4  3  1  6
  4  5  1  0
  5  6  1  0
  6  7  2  0
  7  8  1  0
  8  9  1  0
  9 10  2  0
 10 11  1  0
 11 12  1  0
 12 13  1  0
 13 14  2  0
 14 15  1  0
 15 16  1  0
 11 17  2  0
 17 18  1  0
 18 19  2  0
 19 20  1  0
 20 21  2  0
 21 22  1  0
 22 23  2  0
  8 24  2  0
  4 25  1  0
 25 26  1  0
 26 27  1  6
 27 28  1  0
 27 29  2  0
 26 30  1  0
 30  4  1  0
 24  5  1  0
 23  9  1  0
 16 12  2  0
 23 18  1  0
M  END
$$$$
