KAPDPGZDHUCILF-UHFFFAOYSA-N_6LXA_m8
     RDKit          3D

 34 37  0  0  0  0  0  0  0  0999 V2000
   12.3990    8.7190  -13.5490 C   0  0  0  0  0  0  0  0  0  0  0  0
   11.5100    9.7970  -12.9510 C   0  0  0  0  0  0  0  0  0  0  0  0
   10.1980    9.2110  -12.4270 C   0  0  0  0  0  0  0  0  0  0  0  0
   10.2260    9.0470  -10.9280 C   0  0  0  0  0  0  0  0  0  0  0  0
   10.1920    7.7770  -10.3080 C   0  0  0  0  0  0  0  0  0  0  0  0
   10.0990    6.7100  -11.1690 O   0  0  0  0  0  0  0  0  0  0  0  0
   10.9970    5.6190  -10.9710 C   0  0  0  0  0  0  0  0  0  0  0  0
   10.1760    4.3570  -10.7040 C   0  0  0  0  0  0  0  0  0  0  0  0
   10.1480    3.9210   -9.2380 C   0  0  0  0  0  0  0  0  0  0  0  0
    8.7170    4.5660   -8.2970 S   0  0  0  0  0  0  0  0  0  0  0  0
    9.0130    3.7880   -6.7100 C   0  0  0  0  0  0  0  0  0  0  0  0
   10.1570    2.9890   -6.5760 C   0  0  0  0  0  0  0  0  0  0  0  0
   10.4590    2.3640   -5.3610 C   0  0  0  0  0  0  0  0  0  0  0  0
    9.6260    2.5360   -4.2510 C   0  0  0  0  0  0  0  0  0  0  0  0
    9.9370    1.8490   -2.9410 C   0  0  0  0  0  0  0  0  0  0  0  0
   11.2790    1.1560   -2.9220 C   0  0  0  0  0  0  0  0  0  0  0  0
   11.5560    0.0370   -3.3170 O   0  0  0  0  0  0  0  0  0  0  0  0
   12.2370    1.9350   -2.3720 O   0  0  0  0  0  0  0  0  0  0  0  0
    8.4840    3.3390   -4.3790 C   0  0  0  0  0  0  0  0  0  0  0  0
    8.1810    3.9650   -5.5950 C   0  0  0  0  0  0  0  0  0  0  0  0
    6.7480    4.9350   -5.6480 Cl  0  0  0  0  0  0  0  0  0  0  0  0
   10.2310    7.6550   -8.9130 C   0  0  0  0  0  0  0  0  0  0  0  0
   10.3300    8.7830   -8.0850 C   0  0  0  0  0  0  0  0  0  0  0  0
   10.3920   10.0570   -8.6730 C   0  0  0  0  0  0  0  0  0  0  0  0
   10.4980   11.4000   -8.1980 C   0  0  0  0  0  0  0  0  0  0  0  0
   10.6190   11.9190   -6.8480 C   0  0  0  0  0  0  0  0  0  0  0  0
   10.0570   11.2190   -5.7740 C   0  0  0  0  0  0  0  0  0  0  0  0
   10.1690   11.7160   -4.4730 C   0  0  0  0  0  0  0  0  0  0  0  0
   10.8410   12.9130   -4.2380 C   0  0  0  0  0  0  0  0  0  0  0  0
   11.4040   13.6160   -5.3020 C   0  0  0  0  0  0  0  0  0  0  0  0
   11.2960   13.1210   -6.6020 C   0  0  0  0  0  0  0  0  0  0  0  0
   10.4930   12.1990   -9.3220 C   0  0  0  0  0  0  0  0  0  0  0  0
   10.3940   11.4500  -10.4490 O   0  0  0  0  0  0  0  0  0  0  0  0
   10.3320   10.1430  -10.0600 C   0  0  0  0  0  0  0  0  0  0  0  0
  1  2  1  0
  2  3  1  0
  3  4  1  0
  4  5  2  0
  5  6  1  0
  6  7  1  0
  7  8  1  0
  8  9  1  0
  9 10  1  0
 10 11  1  0
 11 12  2  0
 12 13  1  0
 13 14  2  0
 14 15  1  0
 15 16  1  0
 16 17  2  0
 16 18  1  0
 14 19  1  0
 19 20  2  0
 20 21  1  0
  5 22  1  0
 22 23  2  0
 23 24  1  0
 24 25  1  0
 25 26  1  0
 26 27  2  0
 27 28  1  0
 28 29  2  0
 29 30  1  0
 30 31  2  0
 25 32  2  0
 32 33  1  0
 33 34  1  0
 34  4  1  0
 20 11  1  0
 34 24  2  0
 31 26  1  0
M  END
$$$$
