KFHMLBXBRCITHF-UHFFFAOYSA-N_3POZ_m1
     RDKit          3D

 20 22  0  0  0  0  0  0  0  0999 V2000
   20.1000   31.9820   13.9000 C   0  0  0  0  0  0  0  0  0  0  0  0
   19.8060   31.9580   12.4950 N   0  0  0  0  0  0  0  0  0  0  0  0
   18.8730   32.7150   11.8500 C   0  0  0  0  0  0  0  0  0  0  0  0
   18.5940   32.6190   10.4960 C   0  0  0  0  0  0  0  0  0  0  0  0
   17.6040   33.4490    9.9070 C   0  0  0  0  0  0  0  0  0  0  0  0
   17.2400   33.4500    8.5460 C   0  0  0  0  0  0  0  0  0  0  0  0
   17.9270   32.6060    7.6440 N   0  0  0  0  0  0  0  0  0  0  0  0
   17.6130   31.3150    7.1810 C   0  0  0  0  0  0  0  0  0  0  0  0
   18.5850   30.5980    6.4610 C   0  0  0  0  0  0  0  0  0  0  0  0
   18.3360   29.3020    5.9990 C   0  0  0  0  0  0  0  0  0  0  0  0
   17.1110   28.6950    6.2600 C   0  0  0  0  0  0  0  0  0  0  0  0
   16.1460   29.3880    6.9870 C   0  0  0  0  0  0  0  0  0  0  0  0
   14.4850   28.5620    7.3580 Br  0  0  0  0  0  0  0  0  0  0  0  0
   16.3940   30.6830    7.4480 C   0  0  0  0  0  0  0  0  0  0  0  0
   16.2520   34.2330    8.0760 N   0  0  0  0  0  0  0  0  0  0  0  0
   15.6480   35.0430    8.9490 C   0  0  0  0  0  0  0  0  0  0  0  0
   15.9310   35.1450   10.2490 N   0  0  0  0  0  0  0  0  0  0  0  0
   16.9010   34.3430   10.7120 C   0  0  0  0  0  0  0  0  0  0  0  0
   17.2620   34.3610   12.0460 C   0  0  0  0  0  0  0  0  0  0  0  0
   18.2180   33.5880   12.6270 N   0  0  0  0  0  0  0  0  0  0  0  0
  1  2  1  0
  2  3  1  0
  3  4  2  0
  4  5  1  0
  5  6  2  0
  6  7  1  0
  7  8  1  0
  8  9  2  0
  9 10  1  0
 10 11  2  0
 11 12  1  0
 12 13  1  0
 12 14  2  0
  6 15  1  0
 15 16  2  0
 16 17  1  0
 17 18  2  0
 18 19  1  0
 19 20  2  0
 20  3  1  0
 18  5  1  0
 14  8  1  0
M  END
$$$$
