KGCCMHIRXXLQQG-UHFFFAOYSA-N_5U3Q_m9
     RDKit          3D

 37 41  0  0  0  0  0  0  0  0999 V2000
   39.8430  -38.4960  110.1730 C   0  0  0  0  0  0  0  0  0  0  0  0
   41.0180  -38.4500  109.2120 C   0  0  0  0  0  0  0  0  0  0  0  0
   42.1300  -39.1710  109.7420 O   0  0  0  0  0  0  0  0  0  0  0  0
   43.3830  -38.9290  109.2420 C   0  0  0  0  0  0  0  0  0  0  0  0
   44.2640  -37.9500  109.7080 C   0  0  0  0  0  0  0  0  0  0  0  0
   45.4960  -37.7570  109.0810 C   0  0  0  0  0  0  0  0  0  0  0  0
   46.2890  -36.7650  109.5080 F   0  0  0  0  0  0  0  0  0  0  0  0
   45.8990  -38.5520  108.0120 C   0  0  0  0  0  0  0  0  0  0  0  0
   47.1550  -38.2610  107.2270 C   0  0  0  0  0  0  0  0  0  0  0  0
   48.4190  -38.2030  108.1120 C   0  0  1  0  0  0  0  0  0  0  0  0
   49.1630  -39.5450  108.1770 C   0  0  0  0  0  0  0  0  0  0  0  0
   48.2410  -40.7320  108.4070 C   0  0  0  0  0  0  0  0  0  0  0  0
   49.3820  -37.1250  107.6460 C   0  0  0  0  0  0  0  0  0  0  0  0
   50.5650  -37.3000  107.3970 O   0  0  0  0  0  0  0  0  0  0  0  0
   48.8150  -35.9050  107.5610 O   0  0  0  0  0  0  0  0  0  0  0  0
   45.0460  -39.5770  107.5960 C   0  0  0  0  0  0  0  0  0  0  0  0
   43.7760  -39.7500  108.1690 C   0  0  0  0  0  0  0  0  0  0  0  0
   42.8380  -40.7380  107.5200 C   0  0  0  0  0  0  0  0  0  0  0  0
   43.0390  -40.7880  106.0870 N   0  0  0  0  0  0  0  0  0  0  0  0
   42.4740  -39.8900  105.2080 C   0  0  0  0  0  0  0  0  0  0  0  0
   41.7410  -38.9570  105.5190 O   0  0  0  0  0  0  0  0  0  0  0  0
   42.7860  -40.1410  103.7810 C   0  0  0  0  0  0  0  0  0  0  0  0
   43.2400  -41.3920  103.3590 C   0  0  0  0  0  0  0  0  0  0  0  0
   43.5380  -41.6090  102.0090 C   0  0  0  0  0  0  0  0  0  0  0  0
   43.3920  -40.5880  101.0520 C   0  0  0  0  0  0  0  0  0  0  0  0
   43.7080  -40.7980   99.5620 C   0  0  2  0  0  0  0  0  0  0  0  0
   44.3680  -42.1760   99.2460 C   0  0  0  0  0  0  0  0  0  0  0  0
   44.6580  -42.3370   97.7450 C   0  0  1  0  0  0  0  0  0  0  0  0
   43.3400  -42.2350   96.9640 C   0  0  0  0  0  0  0  0  0  0  0  0
   42.6860  -40.8690   97.2210 C   0  0  2  0  0  0  0  0  0  0  0  0
   43.6470  -39.7550   96.7720 C   0  0  0  0  0  0  0  0  0  0  0  0
   44.9700  -39.8530   97.5490 C   0  0  2  0  0  0  0  0  0  0  0  0
   45.6120  -41.2230   97.2910 C   0  0  0  0  0  0  0  0  0  0  0  0
   44.6870  -39.6970   99.0540 C   0  0  0  0  0  0  0  0  0  0  0  0
   42.3970  -40.7140   98.7250 C   0  0  0  0  0  0  0  0  0  0  0  0
   42.9310  -39.3370  101.5090 C   0  0  0  0  0  0  0  0  0  0  0  0
   42.6390  -39.1100  102.8580 C   0  0  0  0  0  0  0  0  0  0  0  0
  1  2  1  0
  2  3  1  0
  3  4  1  0
  4  5  2  0
  5  6  1  0
  6  7  1  0
  6  8  2  0
  8  9  1  0
 10  9  1  6
 10 11  1  0
 11 12  1  0
 10 13  1  0
 13 14  2  0
 13 15  1  0
  8 16  1  0
 16 17  2  0
 17 18  1  0
 18 19  1  0
 19 20  1  0
 20 21  2  0
 20 22  1  0
 22 23  2  0
 23 24  1  0
 24 25  2  0
 26 25  1  6
 26 27  1  0
 28 27  1  6
 28 29  1  0
 30 29  1  6
 30 31  1  0
 32 31  1  1
 32 33  1  0
 32 34  1  0
 30 35  1  0
 25 36  1  0
 36 37  2  0
 17  4  1  0
 37 22  1  0
 34 26  1  0
 35 26  1  0
 33 28  1  0
M  END
$$$$
