KGCCMHIRXXLQQG-UHFFFAOYSA-N_6LXA_m4
     RDKit          3D

 37 41  0  0  0  0  0  0  0  0999 V2000
    6.3950    9.7830   -4.8410 C   0  0  0  0  0  0  0  0  0  0  0  0
    7.0970    9.2880   -6.0940 C   0  0  0  0  0  0  0  0  0  0  0  0
    6.5570    8.0340   -6.5110 O   0  0  0  0  0  0  0  0  0  0  0  0
    5.6330    7.4070   -5.7170 C   0  0  0  0  0  0  0  0  0  0  0  0
    4.4710    7.9950   -5.2110 C   0  0  0  0  0  0  0  0  0  0  0  0
    3.6300    7.2730   -4.3620 C   0  0  0  0  0  0  0  0  0  0  0  0
    2.5600    7.8870   -3.8380 F   0  0  0  0  0  0  0  0  0  0  0  0
    3.8970    5.9470   -4.0320 C   0  0  0  0  0  0  0  0  0  0  0  0
    3.0860    5.2010   -3.0000 C   0  0  0  0  0  0  0  0  0  0  0  0
    3.4710    5.5700   -1.5510 C   0  0  1  0  0  0  0  0  0  0  0  0
    2.2900    5.4560   -0.5740 C   0  0  0  0  0  0  0  0  0  0  0  0
    2.2000    6.6230    0.3970 C   0  0  0  0  0  0  0  0  0  0  0  0
    4.6190    4.7160   -1.0400 C   0  0  0  0  0  0  0  0  0  0  0  0
    5.7830    5.0780   -0.9620 O   0  0  0  0  0  0  0  0  0  0  0  0
    4.2430    3.4660   -0.7000 O   0  0  0  0  0  0  0  0  0  0  0  0
    5.0210    5.3410   -4.5990 C   0  0  0  0  0  0  0  0  0  0  0  0
    5.9140    6.0650   -5.4040 C   0  0  0  0  0  0  0  0  0  0  0  0
    7.2090    5.3960   -5.7980 C   0  0  0  0  0  0  0  0  0  0  0  0
    7.8100    6.0500   -6.9400 N   0  0  0  0  0  0  0  0  0  0  0  0
    9.1250    5.8760   -7.3120 C   0  0  0  0  0  0  0  0  0  0  0  0
    9.9380    5.1620   -6.7340 O   0  0  0  0  0  0  0  0  0  0  0  0
    9.5430    6.6630   -8.4960 C   0  0  0  0  0  0  0  0  0  0  0  0
   10.0550    6.0300   -9.6300 C   0  0  0  0  0  0  0  0  0  0  0  0
   10.4540    6.7910  -10.7360 C   0  0  0  0  0  0  0  0  0  0  0  0
   10.3520    8.1940  -10.7360 C   0  0  0  0  0  0  0  0  0  0  0  0
   10.7770    9.0550  -11.9370 C   0  0  2  0  0  0  0  0  0  0  0  0
    9.6130    9.3730  -12.9270 C   0  0  0  0  0  0  0  0  0  0  0  0
   10.0880   10.2390  -14.1050 C   0  0  1  0  0  0  0  0  0  0  0  0
   10.6470   11.5630  -13.5630 C   0  0  0  0  0  0  0  0  0  0  0  0
   11.8240   11.2840  -12.6170 C   0  0  2  0  0  0  0  0  0  0  0  0
   12.9230   10.5300  -13.3840 C   0  0  0  0  0  0  0  0  0  0  0  0
   12.3700    9.2040  -13.9310 C   0  0  2  0  0  0  0  0  0  0  0  0
   11.1900    9.4920  -14.8700 C   0  0  0  0  0  0  0  0  0  0  0  0
   11.8880    8.3320  -12.7570 C   0  0  0  0  0  0  0  0  0  0  0  0
   11.3420   10.4180  -11.4390 C   0  0  0  0  0  0  0  0  0  0  0  0
    9.8310    8.8030   -9.5770 C   0  0  0  0  0  0  0  0  0  0  0  0
    9.4390    8.0510   -8.4650 C   0  0  0  0  0  0  0  0  0  0  0  0
  1  2  1  0
  2  3  1  0
  3  4  1  0
  4  5  2  0
  5  6  1  0
  6  7  1  0
  6  8  2  0
  8  9  1  0
 10  9  1  6
 10 11  1  0
 11 12  1  0
 10 13  1  0
 13 14  2  0
 13 15  1  0
  8 16  1  0
 16 17  2  0
 17 18  1  0
 18 19  1  0
 19 20  1  0
 20 21  2  0
 20 22  1  0
 22 23  2  0
 23 24  1  0
 24 25  2  0
 26 25  1  6
 26 27  1  0
 28 27  1  6
 28 29  1  0
 30 29  1  1
 30 31  1  0
 32 31  1  6
 32 33  1  0
 32 34  1  0
 30 35  1  0
 25 36  1  0
 36 37  2  0
 17  4  1  0
 37 22  1  0
 34 26  1  0
 35 26  1  0
 33 28  1  0
M  END
$$$$
