KGCCMHIRXXLQQG-UHFFFAOYSA-N_5U3Q_m8
     RDKit          3D

 37 41  0  0  0  0  0  0  0  0999 V2000
   48.8310  -34.2950  107.0760 C   0  0  0  0  0  0  0  0  0  0  0  0
   48.9150  -35.6640  107.7280 C   0  0  0  0  0  0  0  0  0  0  0  0
   47.6170  -36.2490  107.8360 O   0  0  0  0  0  0  0  0  0  0  0  0
   47.5050  -37.6110  107.9440 C   0  0  0  0  0  0  0  0  0  0  0  0
   48.0680  -38.5400  107.0660 C   0  0  0  0  0  0  0  0  0  0  0  0
   47.8380  -39.9050  107.2440 C   0  0  0  0  0  0  0  0  0  0  0  0
   48.3350  -40.7660  106.3460 F   0  0  0  0  0  0  0  0  0  0  0  0
   47.0860  -40.3800  108.3140 C   0  0  0  0  0  0  0  0  0  0  0  0
   46.7000  -41.8350  108.4380 C   0  0  0  0  0  0  0  0  0  0  0  0
   45.2360  -42.1070  108.0270 C   0  0  1  0  0  0  0  0  0  0  0  0
   44.8870  -41.5270  106.6480 C   0  0  0  0  0  0  0  0  0  0  0  0
   43.6150  -40.6940  106.6520 C   0  0  0  0  0  0  0  0  0  0  0  0
   44.9180  -43.5920  108.0340 C   0  0  0  0  0  0  0  0  0  0  0  0
   43.8410  -44.0810  107.7300 O   0  0  0  0  0  0  0  0  0  0  0  0
   45.9470  -44.3550  108.4550 O   0  0  0  0  0  0  0  0  0  0  0  0
   46.5850  -39.4520  109.2310 C   0  0  0  0  0  0  0  0  0  0  0  0
   46.7500  -38.0720  109.0370 C   0  0  0  0  0  0  0  0  0  0  0  0
   45.9990  -37.1370  109.9540 C   0  0  0  0  0  0  0  0  0  0  0  0
   44.5720  -37.3760  109.8920 N   0  0  0  0  0  0  0  0  0  0  0  0
   43.8730  -37.5000  108.7120 C   0  0  0  0  0  0  0  0  0  0  0  0
   44.3560  -37.4230  107.5870 O   0  0  0  0  0  0  0  0  0  0  0  0
   42.4150  -37.7130  108.8760 C   0  0  0  0  0  0  0  0  0  0  0  0
   41.9200  -38.9230  109.3650 C   0  0  0  0  0  0  0  0  0  0  0  0
   40.5400  -39.1100  109.5050 C   0  0  0  0  0  0  0  0  0  0  0  0
   39.6250  -38.0980  109.1620 C   0  0  0  0  0  0  0  0  0  0  0  0
   38.1040  -38.2720  109.3100 C   0  0  2  0  0  0  0  0  0  0  0  0
   37.6710  -39.7180  109.7030 C   0  0  0  0  0  0  0  0  0  0  0  0
   36.1440  -39.8370  109.8420 C   0  0  1  0  0  0  0  0  0  0  0  0
   35.6610  -38.8680  110.9310 C   0  0  0  0  0  0  0  0  0  0  0  0
   36.0360  -37.4290  110.5510 C   0  0  2  0  0  0  0  0  0  0  0  0
   35.3790  -37.0720  109.2070 C   0  0  0  0  0  0  0  0  0  0  0  0
   35.8570  -38.0390  108.1120 C   0  0  2  0  0  0  0  0  0  0  0  0
   35.4840  -39.4760  108.5040 C   0  0  0  0  0  0  0  0  0  0  0  0
   37.3860  -37.9290  107.9700 C   0  0  0  0  0  0  0  0  0  0  0  0
   37.5650  -37.3150  110.4150 C   0  0  0  0  0  0  0  0  0  0  0  0
   40.1550  -36.8870  108.6720 C   0  0  0  0  0  0  0  0  0  0  0  0
   41.5320  -36.6960  108.5210 C   0  0  0  0  0  0  0  0  0  0  0  0
  1  2  1  0
  2  3  1  0
  3  4  1  0
  4  5  2  0
  5  6  1  0
  6  7  1  0
  6  8  2  0
  8  9  1  0
 10  9  1  6
 10 11  1  0
 11 12  1  0
 10 13  1  0
 13 14  2  0
 13 15  1  0
  8 16  1  0
 16 17  2  0
 17 18  1  0
 18 19  1  0
 19 20  1  0
 20 21  2  0
 20 22  1  0
 22 23  2  0
 23 24  1  0
 24 25  2  0
 26 25  1  1
 26 27  1  0
 28 27  1  1
 28 29  1  0
 30 29  1  1
 30 31  1  0
 32 31  1  6
 32 33  1  0
 32 34  1  0
 30 35  1  0
 25 36  1  0
 36 37  2  0
 17  4  1  0
 37 22  1  0
 34 26  1  0
 35 26  1  0
 33 28  1  0
M  END
$$$$
