KHOPHRHAXOWMRK-UHFFFAOYSA-N_3POZ_m4
     RDKit          3D

 41 46  0  0  0  0  0  0  0  0999 V2000
   19.3250   37.7860   20.3250 C   0  0  0  0  0  0  0  0  0  0  0  0
   17.9700   37.4180   20.0990 O   0  0  0  0  0  0  0  0  0  0  0  0
   17.7080   36.6220   19.0190 C   0  0  0  0  0  0  0  0  0  0  0  0
   18.6470   35.9650   18.2380 C   0  0  0  0  0  0  0  0  0  0  0  0
   18.2280   35.1870   17.1500 C   0  0  0  0  0  0  0  0  0  0  0  0
   19.1360   34.4820   16.3920 O   0  0  0  0  0  0  0  0  0  0  0  0
   20.4770   35.0160   16.3250 C   0  0  1  0  0  0  0  0  0  0  0  0
   21.4670   33.8500   16.2530 C   0  0  0  0  0  0  0  0  0  0  0  0
   22.8990   34.3540   16.0820 C   0  0  0  0  0  0  0  0  0  0  0  0
   23.0320   35.1630   14.8680 N   0  0  0  0  0  0  0  0  0  0  0  0
   24.4050   35.6340   14.6940 C   0  0  0  0  0  0  0  0  0  0  0  0
   22.0830   36.2970   14.8510 C   0  0  0  0  0  0  0  0  0  0  0  0
   20.6200   35.8830   15.0680 C   0  0  0  0  0  0  0  0  0  0  0  0
   19.8520   36.9960   15.1880 F   0  0  0  0  0  0  0  0  0  0  0  0
   20.1630   35.2090   13.9780 F   0  0  0  0  0  0  0  0  0  0  0  0
   16.8370   35.0230   16.8520 C   0  0  0  0  0  0  0  0  0  0  0  0
   16.2590   34.2480   15.8090 C   0  0  0  0  0  0  0  0  0  0  0  0
   17.0960   33.5600   14.9040 N   0  0  0  0  0  0  0  0  0  0  0  0
   17.1680   33.5370   13.5010 C   0  0  0  0  0  0  0  0  0  0  0  0
   16.1700   34.1970   12.7670 C   0  0  0  0  0  0  0  0  0  0  0  0
   16.1820   34.2100   11.3710 C   0  0  0  0  0  0  0  0  0  0  0  0
   17.2160   33.5780   10.6800 C   0  0  0  0  0  0  0  0  0  0  0  0
   17.2340   33.5500    9.3030 O   0  0  0  0  0  0  0  0  0  0  0  0
   16.7210   32.4380    8.6550 C   0  0  0  0  0  0  0  0  0  0  0  0
   15.5170   31.8670    8.8980 C   0  0  0  0  0  0  0  0  0  0  0  0
   15.1100   30.7340    8.1390 C   0  0  0  0  0  0  0  0  0  0  0  0
   14.0320   29.9850    8.1900 N   0  0  0  0  0  0  0  0  0  0  0  0
   14.2590   29.0640    7.2110 C   0  0  0  0  0  0  0  0  0  0  0  0
   15.4050   29.1920    6.5410 N   0  0  0  0  0  0  0  0  0  0  0  0
   15.9690   30.2690    7.1360 N   0  0  0  0  0  0  0  0  0  0  0  0
   17.1900   30.8730    6.8590 C   0  0  0  0  0  0  0  0  0  0  0  0
   17.5710   31.9330    7.5850 C   0  0  0  0  0  0  0  0  0  0  0  0
   18.7510   32.5360    7.3410 F   0  0  0  0  0  0  0  0  0  0  0  0
   18.2180   32.8950   11.3770 C   0  0  0  0  0  0  0  0  0  0  0  0
   19.2990   32.1470   10.6510 C   0  0  0  0  0  0  0  0  0  0  0  0
   18.1770   32.8830   12.7830 C   0  0  0  0  0  0  0  0  0  0  0  0
   14.9240   34.1690   15.6380 N   0  0  0  0  0  0  0  0  0  0  0  0
   14.1560   34.8530   16.4820 C   0  0  0  0  0  0  0  0  0  0  0  0
   14.5860   35.6160   17.4880 N   0  0  0  0  0  0  0  0  0  0  0  0
   15.9070   35.6910   17.6620 C   0  0  0  0  0  0  0  0  0  0  0  0
   16.3560   36.4780   18.7140 C   0  0  0  0  0  0  0  0  0  0  0  0
  1  2  1  0
  2  3  1  0
  3  4  2  0
  4  5  1  0
  5  6  1  0
  7  6  1  6
  7  8  1  0
  8  9  1  0
  9 10  1  0
 10 11  1  0
 10 12  1  0
 12 13  1  0
 13 14  1  0
 13 15  1  0
  5 16  2  0
 16 17  1  0
 17 18  1  0
 18 19  1  0
 19 20  2  0
 20 21  1  0
 21 22  2  0
 22 23  1  0
 23 24  1  0
 24 25  2  0
 25 26  1  0
 26 27  2  0
 27 28  1  0
 28 29  2  0
 29 30  1  0
 30 31  1  0
 31 32  2  0
 32 33  1  0
 22 34  1  0
 34 35  1  0
 34 36  2  0
 17 37  2  0
 37 38  1  0
 38 39  2  0
 39 40  1  0
 40 41  2  0
 41  3  1  0
 13  7  1  0
 40 16  1  0
 36 19  1  0
 32 24  1  0
 30 26  1  0
M  END
$$$$
