KJZFJLLCNRUWRW-UUILKARUSA-N_3POZ_m2
     RDKit          3D

 17 18  0  0  0  0  0  0  0  0999 V2000
   13.5790   34.2460   15.7290 O   0  0  0  0  0  0  0  0  0  0  0  0
   14.7660   34.4710   15.5250 C   0  0  0  0  0  0  0  0  0  0  0  0
   15.6430   35.1200   16.5720 C   0  0  0  0  0  0  0  0  0  0  0  0
   17.2550   35.2930   15.7790 S   0  0  0  0  0  0  0  0  0  0  0  0
   16.6440   34.5160   14.3340 C   0  0  0  0  0  0  0  0  0  0  0  0
   17.5730   34.3610   13.3350 N   0  0  0  0  0  0  0  0  0  0  0  0
   17.4730   33.7280   12.1290 N   0  0  0  0  0  0  0  0  0  0  0  0
   17.0360   34.4290   11.1270 C   0  0  0  0  0  0  0  0  0  0  0  0
   16.8510   33.8210    9.7920 C   0  0  0  0  0  0  0  0  0  0  0  0
   17.4860   32.6020    9.5370 C   0  0  0  0  0  0  0  0  0  0  0  0
   17.3280   32.0010    8.2910 C   0  0  0  0  0  0  0  0  0  0  0  0
   17.9330   30.8330    8.0460 F   0  0  0  0  0  0  0  0  0  0  0  0
   16.5530   32.5910    7.2980 C   0  0  0  0  0  0  0  0  0  0  0  0
   15.9220   33.8100    7.5500 C   0  0  0  0  0  0  0  0  0  0  0  0
   16.0730   34.4210    8.7940 C   0  0  0  0  0  0  0  0  0  0  0  0
   15.4270   35.6150    8.9660 O   0  0  0  0  0  0  0  0  0  0  0  0
   15.4040   34.1630   14.3480 N   0  0  0  0  0  0  0  0  0  0  0  0
  1  2  2  0
  2  3  1  0
  3  4  1  0
  4  5  1  0
  5  6  1  0
  6  7  1  0
  7  8  2  0
  8  9  1  0
  9 10  2  0
 10 11  1  0
 11 12  1  0
 11 13  2  0
 13 14  1  0
 14 15  2  0
 15 16  1  0
  5 17  2  0
 17  2  1  0
 15  9  1  0
M  END
$$$$
