KMEOYPGTFKFRIU-UHFFFAOYSA-N_2JKH_m3
     RDKit          3D

 39 42  0  0  0  0  0  0  0  0999 V2000
   -2.9670   11.8230   14.8150 C   0  0  0  0  0  0  0  0  0  0  0  0
   -3.6280   13.1770   14.9960 C   0  0  0  0  0  0  0  0  0  0  0  0
   -5.0060   12.9910   15.3470 O   0  0  0  0  0  0  0  0  0  0  0  0
   -5.3800   13.4770   16.5510 C   0  0  0  0  0  0  0  0  0  0  0  0
   -5.2170   14.6000   16.9940 O   0  0  0  0  0  0  0  0  0  0  0  0
   -6.0840   12.3590   17.3290 C   0  0  0  0  0  0  0  0  0  0  0  0
   -7.3130   12.3940   17.3900 O   0  0  0  0  0  0  0  0  0  0  0  0
   -5.2790   11.4320   18.0100 N   0  0  0  0  0  0  0  0  0  0  0  0
   -4.9050   10.2180   17.2840 C   0  0  0  0  0  0  0  0  0  0  0  0
   -5.4970    8.9720   17.9050 C   0  0  0  0  0  0  0  0  0  0  0  0
   -6.8110    8.9810   18.4030 C   0  0  0  0  0  0  0  0  0  0  0  0
   -7.3720    7.8280   18.9610 C   0  0  0  0  0  0  0  0  0  0  0  0
   -6.6280    6.6510   19.0190 C   0  0  0  0  0  0  0  0  0  0  0  0
   -5.3310    6.6370   18.5210 C   0  0  0  0  0  0  0  0  0  0  0  0
   -4.6170    5.5030   18.5730 F   0  0  0  0  0  0  0  0  0  0  0  0
   -4.7610    7.7800   17.9660 C   0  0  0  0  0  0  0  0  0  0  0  0
   -4.7420   11.6520   19.3150 C   0  0  0  0  0  0  0  0  0  0  0  0
   -3.3680   11.5540   19.5430 C   0  0  0  0  0  0  0  0  0  0  0  0
   -2.8510   11.7510   20.8210 C   0  0  0  0  0  0  0  0  0  0  0  0
   -3.7040   12.0290   21.8890 C   0  0  0  0  0  0  0  0  0  0  0  0
   -5.1000   12.0910   21.7160 C   0  0  0  0  0  0  0  0  0  0  0  0
   -5.5880   11.9150   20.4100 C   0  0  0  0  0  0  0  0  0  0  0  0
   -5.9400   12.3270   22.8020 N   0  0  0  0  0  0  0  0  0  0  0  0
   -7.3890   12.2830   22.7080 C   0  0  0  0  0  0  0  0  0  0  0  0
   -5.3190   12.1310   24.1140 C   0  0  0  0  0  0  0  0  0  0  0  0
   -3.8990   12.7330   24.1530 C   0  0  1  0  0  0  0  0  0  0  0  0
   -3.9320   14.2690   24.0680 C   0  0  0  0  0  0  0  0  0  0  0  0
   -3.2030   12.2980   25.4620 C   0  0  0  0  0  0  0  0  0  0  0  0
   -1.8970   11.7870   25.1980 O   0  0  0  0  0  0  0  0  0  0  0  0
   -1.5880   10.5740   25.7510 C   0  0  0  0  0  0  0  0  0  0  0  0
   -0.5460    9.7320   25.3540 C   0  0  0  0  0  0  0  0  0  0  0  0
   -0.3490    8.4990   25.9910 C   0  0  0  0  0  0  0  0  0  0  0  0
   -1.1820    8.1040   27.0440 C   0  0  0  0  0  0  0  0  0  0  0  0
   -1.0090    6.7860   27.7340 C   0  0  0  0  0  0  0  0  0  0  0  0
   -0.6170    5.7600   27.0490 N   0  0  0  0  0  0  0  0  0  0  0  0
   -1.2540    6.6380   29.0650 N   0  0  0  0  0  0  0  0  0  0  0  0
   -2.2180    8.9560   27.4450 C   0  0  0  0  0  0  0  0  0  0  0  0
   -2.4150   10.1820   26.8040 C   0  0  0  0  0  0  0  0  0  0  0  0
   -3.0680   12.2160   23.0920 O   0  0  0  0  0  0  0  0  0  0  0  0
  1  2  1  0
  2  3  1  0
  3  4  1  0
  4  5  2  0
  4  6  1  0
  6  7  2  0
  6  8  1  0
  8  9  1  0
  9 10  1  0
 10 11  2  0
 11 12  1  0
 12 13  2  0
 13 14  1  0
 14 15  1  0
 14 16  2  0
  8 17  1  0
 17 18  2  0
 18 19  1  0
 19 20  2  0
 20 21  1  0
 21 22  2  0
 21 23  1  0
 23 24  1  0
 23 25  1  0
 25 26  1  0
 26 27  1  1
 26 28  1  0
 28 29  1  0
 29 30  1  0
 30 31  2  0
 31 32  1  0
 32 33  2  0
 33 34  1  0
 34 35  2  3
 34 36  1  0
 33 37  1  0
 37 38  2  0
 26 39  1  0
 16 10  1  0
 22 17  1  0
 38 30  1  0
 39 20  1  0
M  END
$$$$
