KOBKLBFNTIJTTR-UHFFFAOYSA-N_3RCD_m9
     RDKit          3D

 35 39  0  0  0  0  0  0  0  0999 V2000
   10.4420    1.5110   32.1730 C   0  0  0  0  0  0  0  0  0  0  0  0
   11.5080    1.3320   31.1350 C   0  0  0  0  0  0  0  0  0  0  0  0
   12.6180    2.1740   31.1210 C   0  0  0  0  0  0  0  0  0  0  0  0
   13.5950    1.9900   30.1430 C   0  0  0  0  0  0  0  0  0  0  0  0
   13.4460    0.9610   29.2190 C   0  0  0  0  0  0  0  0  0  0  0  0
   14.3180    0.7090   28.1880 O   0  0  0  0  0  0  0  0  0  0  0  0
   14.4190    1.6620   27.2060 C   0  0  0  0  0  0  0  0  0  0  0  0
   13.2830    1.9460   26.4560 C   0  0  0  0  0  0  0  0  0  0  0  0
   13.3460    2.8900   25.4220 C   0  0  0  0  0  0  0  0  0  0  0  0
   14.5430    3.5490   25.1070 C   0  0  0  0  0  0  0  0  0  0  0  0
   14.6650    4.5100   24.0910 N   0  0  0  0  0  0  0  0  0  0  0  0
   15.2800    5.7690   24.0380 C   0  0  0  0  0  0  0  0  0  0  0  0
   16.4510    5.9860   23.3810 N   0  0  0  0  0  0  0  0  0  0  0  0
   16.9860    7.2240   23.3640 C   0  0  0  0  0  0  0  0  0  0  0  0
   16.5030    8.3440   23.9310 N   0  0  0  0  0  0  0  0  0  0  0  0
   15.3490    8.0930   24.5660 C   0  0  0  0  0  0  0  0  0  0  0  0
   14.5850    8.9940   25.2500 N   0  0  0  0  0  0  0  0  0  0  0  0
   13.4690    8.4590   25.7920 N   0  0  0  0  0  0  0  0  0  0  0  0
   13.5500    7.1760   25.4270 C   0  0  0  0  0  0  0  0  0  0  0  0
   12.6050    6.2770   25.7860 O   0  0  0  0  0  0  0  0  0  0  0  0
   11.2570    6.7660   25.7960 C   0  0  0  0  0  0  0  0  0  0  0  0
   10.5020    6.3540   24.5190 C   0  0  0  0  0  0  0  0  0  0  0  0
    9.6030    7.4020   23.9890 N   0  0  0  0  0  0  0  0  0  0  0  0
    8.2590    7.2370   24.5760 C   0  0  0  0  0  0  0  0  0  0  0  0
    7.2750    8.2570   24.0030 C   0  0  0  0  0  0  0  0  0  0  0  0
    7.7700    9.6840   24.2020 C   0  0  0  0  0  0  0  0  0  0  0  0
    7.6840   10.0220   25.5870 O   0  0  0  0  0  0  0  0  0  0  0  0
    9.2070    9.8330   23.7160 C   0  0  0  0  0  0  0  0  0  0  0  0
   10.1170    8.7480   24.2970 C   0  0  0  0  0  0  0  0  0  0  0  0
   14.6960    6.8810   24.6620 C   0  0  0  0  0  0  0  0  0  0  0  0
   15.6830    3.2270   25.8620 C   0  0  0  0  0  0  0  0  0  0  0  0
   15.6200    2.2900   26.8920 C   0  0  0  0  0  0  0  0  0  0  0  0
   16.7400    1.9990   27.5690 F   0  0  0  0  0  0  0  0  0  0  0  0
   12.3020    0.1800   29.2960 C   0  0  0  0  0  0  0  0  0  0  0  0
   11.3330    0.3400   30.2300 N   0  0  0  0  0  0  0  0  0  0  0  0
  1  2  1  0
  2  3  2  0
  3  4  1  0
  4  5  2  0
  5  6  1  0
  6  7  1  0
  7  8  2  0
  8  9  1  0
  9 10  2  0
 10 11  1  0
 11 12  1  0
 12 13  2  0
 13 14  1  0
 14 15  2  0
 15 16  1  0
 16 17  1  0
 17 18  1  0
 18 19  2  0
 19 20  1  0
 20 21  1  0
 21 22  1  0
 22 23  1  0
 23 24  1  0
 24 25  1  0
 25 26  1  0
 26 27  1  0
 26 28  1  0
 28 29  1  0
 19 30  1  0
 10 31  1  0
 31 32  2  0
 32 33  1  0
  5 34  1  0
 34 35  2  0
 35  2  1  0
 32  7  1  0
 30 12  1  0
 30 16  2  0
 29 23  1  0
M  END
$$$$
