KOBKLBFNTIJTTR-UHFFFAOYSA-N_3RCD_m8
     RDKit          3D

 35 39  0  0  0  0  0  0  0  0999 V2000
    8.2530    9.3490   25.2630 C   0  0  0  0  0  0  0  0  0  0  0  0
    9.1550    8.2880   24.7060 C   0  0  0  0  0  0  0  0  0  0  0  0
    9.1810    7.0200   25.2820 C   0  0  0  0  0  0  0  0  0  0  0  0
   10.0300    6.0520   24.7480 C   0  0  0  0  0  0  0  0  0  0  0  0
   10.8160    6.3700   23.6450 C   0  0  0  0  0  0  0  0  0  0  0  0
   11.7180    5.5150   23.0600 O   0  0  0  0  0  0  0  0  0  0  0  0
   12.6870    4.9780   23.8690 C   0  0  0  0  0  0  0  0  0  0  0  0
   13.6510    5.8350   24.3890 C   0  0  0  0  0  0  0  0  0  0  0  0
   14.6760    5.3260   25.1960 C   0  0  0  0  0  0  0  0  0  0  0  0
   14.7710    3.9560   25.4800 C   0  0  0  0  0  0  0  0  0  0  0  0
   15.7680    3.3900   26.2890 N   0  0  0  0  0  0  0  0  0  0  0  0
   16.3510    2.1150   26.3350 C   0  0  0  0  0  0  0  0  0  0  0  0
   17.4970    1.8080   25.6690 N   0  0  0  0  0  0  0  0  0  0  0  0
   18.0070    0.5630   25.7610 C   0  0  0  0  0  0  0  0  0  0  0  0
   17.5240   -0.4820   26.4560 N   0  0  0  0  0  0  0  0  0  0  0  0
   16.3980   -0.1430   27.1000 C   0  0  0  0  0  0  0  0  0  0  0  0
   15.6410   -0.9520   27.8970 N   0  0  0  0  0  0  0  0  0  0  0  0
   14.5550   -0.3400   28.4180 N   0  0  0  0  0  0  0  0  0  0  0  0
   14.6470    0.8970   27.9200 C   0  0  0  0  0  0  0  0  0  0  0  0
   13.7230    1.8440   28.2030 O   0  0  0  0  0  0  0  0  0  0  0  0
   12.5170    1.3700   28.8160 C   0  0  0  0  0  0  0  0  0  0  0  0
   11.9890    2.3690   29.8610 C   0  0  0  0  0  0  0  0  0  0  0  0
   10.9910    1.7940   30.7890 N   0  0  0  0  0  0  0  0  0  0  0  0
    9.6370    2.2080   30.3700 C   0  0  0  0  0  0  0  0  0  0  0  0
    8.5750    1.6940   31.3430 C   0  0  0  0  0  0  0  0  0  0  0  0
    8.6440    0.1810   31.4990 C   0  0  0  0  0  0  0  0  0  0  0  0
    8.1830   -0.4370   30.2970 O   0  0  0  0  0  0  0  0  0  0  0  0
   10.0690   -0.2690   31.8040 C   0  0  0  0  0  0  0  0  0  0  0  0
   11.0750    0.3240   30.8160 C   0  0  0  0  0  0  0  0  0  0  0  0
   15.7710    1.0870   27.0920 C   0  0  0  0  0  0  0  0  0  0  0  0
   13.8000    3.1070   24.9240 C   0  0  0  0  0  0  0  0  0  0  0  0
   12.7780    3.6130   24.1230 C   0  0  0  0  0  0  0  0  0  0  0  0
   11.8880    2.7590   23.5960 F   0  0  0  0  0  0  0  0  0  0  0  0
   10.7390    7.6620   23.1450 C   0  0  0  0  0  0  0  0  0  0  0  0
    9.9280    8.6250   23.6470 N   0  0  0  0  0  0  0  0  0  0  0  0
  1  2  1  0
  2  3  2  0
  3  4  1  0
  4  5  2  0
  5  6  1  0
  6  7  1  0
  7  8  2  0
  8  9  1  0
  9 10  2  0
 10 11  1  0
 11 12  1  0
 12 13  2  0
 13 14  1  0
 14 15  2  0
 15 16  1  0
 16 17  1  0
 17 18  1  0
 18 19  2  0
 19 20  1  0
 20 21  1  0
 21 22  1  0
 22 23  1  0
 23 24  1  0
 24 25  1  0
 25 26  1  0
 26 27  1  0
 26 28  1  0
 28 29  1  0
 19 30  1  0
 10 31  1  0
 31 32  2  0
 32 33  1  0
  5 34  1  0
 34 35  2  0
 35  2  1  0
 32  7  1  0
 30 12  1  0
 30 16  2  0
 29 23  1  0
M  END
$$$$
