KORIKKLQSZIORK-UHFFFAOYSA-N_9V8H_m4
     RDKit          3D

 34 37  0  0  0  0  0  0  0  0999 V2000
  -15.1360   -2.3030  -25.4790 C   0  0  0  0  0  0  0  0  0  0  0  0
  -14.7570   -3.3200  -26.4080 O   0  0  0  0  0  0  0  0  0  0  0  0
  -14.0110   -4.3220  -25.8630 C   0  0  0  0  0  0  0  0  0  0  0  0
  -14.0780   -4.6900  -24.6970 O   0  0  0  0  0  0  0  0  0  0  0  0
  -13.1120   -4.9300  -26.9040 C   0  0  2  0  0  0  0  0  0  0  0  0
  -13.0340   -4.0080  -28.1130 C   0  0  0  0  0  0  0  0  0  0  0  0
  -12.1550   -4.6370  -29.1480 C   0  0  0  0  0  0  0  0  0  0  0  0
  -11.3810   -3.8810  -30.0280 C   0  0  0  0  0  0  0  0  0  0  0  0
  -10.5910   -4.5170  -30.9940 C   0  0  0  0  0  0  0  0  0  0  0  0
  -10.5780   -5.9110  -31.0930 C   0  0  0  0  0  0  0  0  0  0  0  0
   -9.8560   -6.6470  -31.9910 O   0  0  0  0  0  0  0  0  0  0  0  0
   -8.4510   -6.3890  -32.0720 C   0  0  0  0  0  0  0  0  0  0  0  0
   -7.7000   -7.7110  -31.9180 C   0  0  0  0  0  0  0  0  0  0  0  0
   -8.0960   -8.4420  -30.6840 C   0  0  0  0  0  0  0  0  0  0  0  0
   -7.8130   -7.9260  -29.4380 N   0  0  0  0  0  0  0  0  0  0  0  0
   -8.3100   -8.8140  -28.5960 C   0  0  0  0  0  0  0  0  0  0  0  0
   -8.3180   -8.7980  -27.1360 C   0  0  0  0  0  0  0  0  0  0  0  0
   -9.2780   -8.0420  -26.4550 C   0  0  0  0  0  0  0  0  0  0  0  0
   -9.3120   -8.0170  -25.0560 C   0  0  0  0  0  0  0  0  0  0  0  0
   -8.3890   -8.7450  -24.2830 C   0  0  0  0  0  0  0  0  0  0  0  0
   -8.4600   -8.6980  -22.7470 C   0  0  0  0  0  0  0  0  0  0  0  0
   -7.4850   -9.7370  -22.1500 C   0  0  0  0  0  0  0  0  0  0  0  0
   -9.8950   -9.0250  -22.2830 C   0  0  0  0  0  0  0  0  0  0  0  0
   -8.0870   -7.3250  -22.1450 C   0  0  0  0  0  0  0  0  0  0  0  0
   -7.4280   -9.4960  -24.9760 C   0  0  0  0  0  0  0  0  0  0  0  0
   -7.3930   -9.5230  -26.3780 C   0  0  0  0  0  0  0  0  0  0  0  0
   -8.9070   -9.8870  -29.2080 O   0  0  0  0  0  0  0  0  0  0  0  0
   -8.7640   -9.6390  -30.5440 C   0  0  0  0  0  0  0  0  0  0  0  0
   -9.3360  -10.6300  -31.4720 C   0  0  0  0  0  0  0  0  0  0  0  0
  -11.3670   -6.6670  -30.2250 C   0  0  0  0  0  0  0  0  0  0  0  0
  -12.1430   -6.0230  -29.2640 C   0  0  0  0  0  0  0  0  0  0  0  0
  -12.9490   -6.8260  -28.4360 O   0  0  0  0  0  0  0  0  0  0  0  0
  -13.5880   -6.2940  -27.3160 C   0  0  0  0  0  0  0  0  0  0  0  0
  -14.4090   -6.9560  -26.6900 O   0  0  0  0  0  0  0  0  0  0  0  0
  1  2  1  0
  2  3  1  0
  3  4  2  0
  5  3  1  1
  5  6  1  0
  6  7  1  0
  7  8  2  0
  8  9  1  0
  9 10  2  0
 10 11  1  0
 11 12  1  0
 12 13  1  0
 13 14  1  0
 14 15  1  0
 15 16  2  0
 16 17  1  0
 17 18  2  0
 18 19  1  0
 19 20  2  0
 20 21  1  0
 21 22  1  0
 21 23  1  0
 21 24  1  0
 20 25  1  0
 25 26  2  0
 16 27  1  0
 27 28  1  0
 28 29  1  0
 10 30  1  0
 30 31  2  0
 31 32  1  0
 32 33  1  0
 33 34  2  0
 33  5  1  0
 31  7  1  0
 28 14  2  0
 26 17  1  0
M  END
$$$$
