KOXPFQLGGZYKBZ-UHFFFAOYSA-N_6LXA_m8
     RDKit          3D

 30 33  0  0  0  0  0  0  0  0999 V2000
    3.0060    7.6720   -5.5080 C   0  0  0  0  0  0  0  0  0  0  0  0
    3.1930    7.1170   -4.1090 C   0  0  0  0  0  0  0  0  0  0  0  0
    4.3530    7.7220   -3.5430 O   0  0  0  0  0  0  0  0  0  0  0  0
    4.8930    6.9730   -2.4460 C   0  0  2  0  0  0  0  0  0  0  0  0
    4.7700    5.4800   -2.7870 C   0  0  0  0  0  0  0  0  0  0  0  0
    6.1120    4.8770   -3.1640 C   0  0  0  0  0  0  0  0  0  0  0  0
    6.9110    4.3100   -2.1500 C   0  0  0  0  0  0  0  0  0  0  0  0
    8.1560    3.7520   -2.4310 C   0  0  0  0  0  0  0  0  0  0  0  0
    8.6580    3.7400   -3.7310 C   0  0  0  0  0  0  0  0  0  0  0  0
    7.8740    4.3090   -4.7450 C   0  0  0  0  0  0  0  0  0  0  0  0
    6.6200    4.8750   -4.4880 C   0  0  0  0  0  0  0  0  0  0  0  0
    6.1230    5.3600   -5.7320 C   0  0  0  0  0  0  0  0  0  0  0  0
    7.0570    5.0860   -6.7020 C   0  0  0  0  0  0  0  0  0  0  0  0
    8.1060    4.4350   -6.1030 N   0  0  0  0  0  0  0  0  0  0  0  0
    9.3080    3.9950   -6.8050 C   0  0  0  0  0  0  0  0  0  0  0  0
    9.6570    4.8900   -7.9390 C   0  0  0  0  0  0  0  0  0  0  0  0
    9.7140    6.2600   -7.7600 N   0  0  0  0  0  0  0  0  0  0  0  0
   10.0440    6.7340   -8.9470 C   0  0  0  0  0  0  0  0  0  0  0  0
   10.2590    8.1180   -9.3620 C   0  0  0  0  0  0  0  0  0  0  0  0
   10.3070    9.1730   -8.4380 C   0  0  0  0  0  0  0  0  0  0  0  0
   10.5140   10.4870   -8.8630 C   0  0  0  0  0  0  0  0  0  0  0  0
   10.6750   10.7660  -10.2190 C   0  0  0  0  0  0  0  0  0  0  0  0
   10.6300    9.7300  -11.1510 C   0  0  0  0  0  0  0  0  0  0  0  0
   10.4240    8.4160  -10.7240 C   0  0  0  0  0  0  0  0  0  0  0  0
   10.1950    5.7690   -9.9080 O   0  0  0  0  0  0  0  0  0  0  0  0
    9.9440    4.5950   -9.2570 C   0  0  0  0  0  0  0  0  0  0  0  0
   10.0440    3.3550  -10.0500 C   0  0  0  0  0  0  0  0  0  0  0  0
    4.1460    7.2440   -1.1380 C   0  0  0  0  0  0  0  0  0  0  0  0
    3.4210    6.4810   -0.5200 O   0  0  0  0  0  0  0  0  0  0  0  0
    4.3190    8.5080   -0.6880 O   0  0  0  0  0  0  0  0  0  0  0  0
  1  2  1  0
  2  3  1  0
  3  4  1  0
  4  5  1  6
  5  6  1  0
  6  7  2  0
  7  8  1  0
  8  9  2  0
  9 10  1  0
 10 11  2  0
 11 12  1  0
 12 13  2  0
 13 14  1  0
 14 15  1  0
 15 16  1  0
 16 17  1  0
 17 18  2  0
 18 19  1  0
 19 20  2  0
 20 21  1  0
 21 22  2  0
 22 23  1  0
 23 24  2  0
 18 25  1  0
 25 26  1  0
 26 27  1  0
  4 28  1  0
 28 29  2  0
 28 30  1  0
 11  6  1  0
 26 16  2  0
 14 10  1  0
 24 19  1  0
M  END
$$$$
