KOXPFQLGGZYKBZ-UHFFFAOYSA-N_6LXA_m5
     RDKit          3D

 30 33  0  0  0  0  0  0  0  0999 V2000
    3.0660    5.3760   -0.7250 C   0  0  0  0  0  0  0  0  0  0  0  0
    3.0000    4.9180   -2.1690 C   0  0  0  0  0  0  0  0  0  0  0  0
    2.7300    6.0550   -2.9840 O   0  0  0  0  0  0  0  0  0  0  0  0
    3.9190    6.6700   -3.4940 C   0  0  2  0  0  0  0  0  0  0  0  0
    3.7280    8.1930   -3.4320 C   0  0  0  0  0  0  0  0  0  0  0  0
    5.0370    8.9140   -3.1680 C   0  0  0  0  0  0  0  0  0  0  0  0
    5.4070    9.1870   -1.8350 C   0  0  0  0  0  0  0  0  0  0  0  0
    6.5900    9.8550   -1.5290 C   0  0  0  0  0  0  0  0  0  0  0  0
    7.4510   10.2840   -2.5380 C   0  0  0  0  0  0  0  0  0  0  0  0
    7.0890   10.0240   -3.8680 C   0  0  0  0  0  0  0  0  0  0  0  0
    5.9060    9.3540   -4.2000 C   0  0  0  0  0  0  0  0  0  0  0  0
    5.8590    9.2800   -5.6220 C   0  0  0  0  0  0  0  0  0  0  0  0
    6.9860    9.8880   -6.1200 C   0  0  0  0  0  0  0  0  0  0  0  0
    7.7350   10.3210   -5.0550 N   0  0  0  0  0  0  0  0  0  0  0  0
    9.0010   11.0360   -5.1780 C   0  0  0  0  0  0  0  0  0  0  0  0
    9.5100   11.0430   -6.5740 C   0  0  0  0  0  0  0  0  0  0  0  0
    9.5120    9.8840   -7.3260 N   0  0  0  0  0  0  0  0  0  0  0  0
   10.0210   10.2450   -8.4900 C   0  0  0  0  0  0  0  0  0  0  0  0
   10.2570    9.4400   -9.6850 C   0  0  0  0  0  0  0  0  0  0  0  0
   10.5150   10.0220  -10.9360 C   0  0  0  0  0  0  0  0  0  0  0  0
   10.7380    9.2260  -12.0620 C   0  0  0  0  0  0  0  0  0  0  0  0
   10.7060    7.8370  -11.9540 C   0  0  0  0  0  0  0  0  0  0  0  0
   10.4510    7.2430  -10.7190 C   0  0  0  0  0  0  0  0  0  0  0  0
   10.2290    8.0400   -9.5940 C   0  0  0  0  0  0  0  0  0  0  0  0
   10.3720   11.5680   -8.5540 O   0  0  0  0  0  0  0  0  0  0  0  0
   10.0450   12.0700   -7.3270 C   0  0  0  0  0  0  0  0  0  0  0  0
   10.3050   13.5040   -7.0990 C   0  0  0  0  0  0  0  0  0  0  0  0
    4.2040    6.2670   -4.9430 C   0  0  0  0  0  0  0  0  0  0  0  0
    5.1030    5.5520   -5.3570 O   0  0  0  0  0  0  0  0  0  0  0  0
    3.3480    6.8360   -5.8230 O   0  0  0  0  0  0  0  0  0  0  0  0
  1  2  1  0
  2  3  1  0
  3  4  1  0
  4  5  1  6
  5  6  1  0
  6  7  2  0
  7  8  1  0
  8  9  2  0
  9 10  1  0
 10 11  2  0
 11 12  1  0
 12 13  2  0
 13 14  1  0
 14 15  1  0
 15 16  1  0
 16 17  1  0
 17 18  2  0
 18 19  1  0
 19 20  2  0
 20 21  1  0
 21 22  2  0
 22 23  1  0
 23 24  2  0
 18 25  1  0
 25 26  1  0
 26 27  1  0
  4 28  1  0
 28 29  2  0
 28 30  1  0
 11  6  1  0
 26 16  2  0
 14 10  1  0
 24 19  1  0
M  END
$$$$
