KSIQZOUSAASEIJ-UHFFFAOYSA-N_6LXA_m7
     RDKit          3D

 36 40  0  0  0  0  0  0  0  0999 V2000
    2.1680    7.1280    0.2850 C   0  0  0  0  0  0  0  0  0  0  0  0
    2.8100    5.7480    0.2180 C   0  0  0  0  0  0  0  0  0  0  0  0
    3.8360    5.6250   -0.9210 C   0  0  1  0  0  0  0  0  0  0  0  0
    4.6820    6.9010   -1.0930 C   0  0  0  0  0  0  0  0  0  0  0  0
    4.6010    7.5060   -2.4740 C   0  0  0  0  0  0  0  0  0  0  0  0
    3.7040    7.0070   -3.4220 C   0  0  0  0  0  0  0  0  0  0  0  0
    3.6440    7.5580   -4.7060 C   0  0  0  0  0  0  0  0  0  0  0  0
    4.4740    8.6240   -5.0640 C   0  0  0  0  0  0  0  0  0  0  0  0
    4.4990    9.2100   -6.3030 O   0  0  0  0  0  0  0  0  0  0  0  0
    3.3750    9.0020   -7.1480 C   0  0  0  0  0  0  0  0  0  0  0  0
    5.3660    9.1510   -4.1140 C   0  0  0  0  0  0  0  0  0  0  0  0
    6.2960   10.2920   -4.4440 C   0  0  0  0  0  0  0  0  0  0  0  0
    6.9850   10.0510   -5.6900 N   0  0  0  0  0  0  0  0  0  0  0  0
    8.3280   10.2890   -5.8540 C   0  0  0  0  0  0  0  0  0  0  0  0
    9.0370   10.7490   -4.9630 O   0  0  0  0  0  0  0  0  0  0  0  0
    8.9250    9.9660   -7.1800 C   0  0  0  0  0  0  0  0  0  0  0  0
    9.6660   10.9570   -7.8370 C   0  0  0  0  0  0  0  0  0  0  0  0
   10.2320   10.7150   -9.0970 C   0  0  0  0  0  0  0  0  0  0  0  0
   10.0790    9.4780   -9.7420 C   0  0  0  0  0  0  0  0  0  0  0  0
   10.6690    9.1820  -11.1310 C   0  0  2  0  0  0  0  0  0  0  0  0
    9.5530    9.2730  -12.2140 C   0  0  0  0  0  0  0  0  0  0  0  0
   10.1000    8.9270  -13.6100 C   0  0  1  0  0  0  0  0  0  0  0  0
   11.2120    9.9180  -13.9790 C   0  0  0  0  0  0  0  0  0  0  0  0
   12.3510    9.8310  -12.9540 C   0  0  2  0  0  0  0  0  0  0  0  0
   12.9190    8.4040  -12.9410 C   0  0  0  0  0  0  0  0  0  0  0  0
   11.8160    7.4060  -12.5650 C   0  0  2  0  0  0  0  0  0  0  0  0
   10.6740    7.5010  -13.5900 C   0  0  0  0  0  0  0  0  0  0  0  0
   11.2730    7.7470  -11.1650 C   0  0  0  0  0  0  0  0  0  0  0  0
   11.8010   10.1680  -11.5560 C   0  0  0  0  0  0  0  0  0  0  0  0
    9.3380    8.4900   -9.0640 C   0  0  0  0  0  0  0  0  0  0  0  0
    8.7740    8.7340   -7.8080 C   0  0  0  0  0  0  0  0  0  0  0  0
    8.0720    7.7410   -7.2380 F   0  0  0  0  0  0  0  0  0  0  0  0
    5.4260    8.5790   -2.8300 C   0  0  0  0  0  0  0  0  0  0  0  0
    4.7900    4.4900   -0.6300 C   0  0  0  0  0  0  0  0  0  0  0  0
    6.0090    4.5360   -0.6630 O   0  0  0  0  0  0  0  0  0  0  0  0
    4.1570    3.3490   -0.2980 O   0  0  0  0  0  0  0  0  0  0  0  0
  1  2  1  0
  3  2  1  1
  3  4  1  0
  4  5  1  0
  5  6  2  0
  6  7  1  0
  7  8  2  0
  8  9  1  0
  9 10  1  0
  8 11  1  0
 11 12  1  0
 12 13  1  0
 13 14  1  0
 14 15  2  0
 14 16  1  0
 16 17  2  0
 17 18  1  0
 18 19  2  0
 20 19  1  1
 20 21  1  0
 22 21  1  1
 22 23  1  0
 24 23  1  6
 24 25  1  0
 26 25  1  6
 26 27  1  0
 26 28  1  0
 24 29  1  0
 19 30  1  0
 30 31  2  0
 31 32  1  0
 11 33  2  0
  3 34  1  0
 34 35  2  0
 34 36  1  0
 33  5  1  0
 31 16  1  0
 28 20  1  0
 29 20  1  0
 27 22  1  0
M  END
$$$$
