KSTNVCYPZQORSY-LYSGITKLSA-N_6LXA_m2
     RDKit          3D

 28 29  0  0  0  0  0  0  0  0999 V2000
   10.3800   11.3490  -13.7760 C   0  0  0  0  0  0  0  0  0  0  0  0
    9.8910   10.3070  -12.7860 C   0  0  0  0  0  0  0  0  0  0  0  0
   10.1470    8.9920  -13.2770 O   0  0  0  0  0  0  0  0  0  0  0  0
   11.0350    8.2260  -12.4540 C   0  0  1  0  0  0  0  0  0  0  0  0
   10.5560    6.7660  -12.4740 C   0  0  0  0  0  0  0  0  0  0  0  0
   10.4110    6.1990  -11.0780 C   0  0  0  0  0  0  0  0  0  0  0  0
   10.1970    4.8280  -10.8850 C   0  0  0  0  0  0  0  0  0  0  0  0
   10.0410    4.3020   -9.5980 C   0  0  0  0  0  0  0  0  0  0  0  0
   10.0950    5.1420   -8.4870 C   0  0  0  0  0  0  0  0  0  0  0  0
    9.9580    4.7620   -7.1790 O   0  0  0  0  0  0  0  0  0  0  0  0
    8.7690    4.0570   -6.8310 C   0  0  0  0  0  0  0  0  0  0  0  0
    7.7860    4.9660   -6.1430 C   0  0  0  0  0  0  0  0  0  0  0  0
    6.5150    5.1900   -6.5170 C   0  0  0  0  0  0  0  0  0  0  0  0
    5.5910    6.0800   -5.8000 C   0  0  0  0  0  0  0  0  0  0  0  0
    4.6030    5.5900   -4.9380 C   0  0  0  0  0  0  0  0  0  0  0  0
    3.7540    6.4600   -4.2480 C   0  0  0  0  0  0  0  0  0  0  0  0
    2.8320    5.8420   -3.4470 O   0  0  0  0  0  0  0  0  0  0  0  0
    3.3290    4.8940   -2.5100 C   0  0  0  0  0  0  0  0  0  0  0  0
    3.9030    7.8350   -4.4180 C   0  0  0  0  0  0  0  0  0  0  0  0
    4.8960    8.3450   -5.2620 C   0  0  0  0  0  0  0  0  0  0  0  0
    4.9350    9.7120   -5.3290 O   0  0  0  0  0  0  0  0  0  0  0  0
    5.6210   10.3890   -4.2830 C   0  0  0  0  0  0  0  0  0  0  0  0
    5.7390    7.4670   -5.9450 C   0  0  0  0  0  0  0  0  0  0  0  0
   10.3040    6.5100   -8.6760 C   0  0  0  0  0  0  0  0  0  0  0  0
   10.4590    7.0390   -9.9600 C   0  0  0  0  0  0  0  0  0  0  0  0
   12.4780    8.2810  -12.9660 C   0  0  0  0  0  0  0  0  0  0  0  0
   13.0040    9.1720  -13.6140 O   0  0  0  0  0  0  0  0  0  0  0  0
   13.2130    7.2140  -12.5820 O   0  0  0  0  0  0  0  0  0  0  0  0
  1  2  1  0
  2  3  1  0
  3  4  1  0
  4  5  1  6
  5  6  1  0
  6  7  2  0
  7  8  1  0
  8  9  2  0
  9 10  1  0
 10 11  1  0
 11 12  1  0
 12 13  2  0
 13 14  1  0
 14 15  2  0
 15 16  1  0
 16 17  1  0
 17 18  1  0
 16 19  2  0
 19 20  1  0
 20 21  1  0
 21 22  1  0
 20 23  2  0
  9 24  1  0
 24 25  2  0
  4 26  1  0
 26 27  2  0
 26 28  1  0
 25  6  1  0
 23 14  1  0
M  END
$$$$
