KUARAUXPEGUHNO-UHFFFAOYSA-N_6LXA_m5
     RDKit          3D

 33 36  0  0  0  0  0  0  0  0999 V2000
    9.7830   11.0190   -6.9960 C   0  0  0  0  0  0  0  0  0  0  0  0
    9.0510    9.8760   -7.4190 O   0  0  0  0  0  0  0  0  0  0  0  0
    8.0180    9.4670   -6.6160 C   0  0  0  0  0  0  0  0  0  0  0  0
    7.5950    8.1590   -6.8410 C   0  0  0  0  0  0  0  0  0  0  0  0
    6.5500    7.5870   -6.1070 C   0  0  0  0  0  0  0  0  0  0  0  0
    5.9280    8.3730   -5.1240 C   0  0  0  0  0  0  0  0  0  0  0  0
    6.3340    9.6910   -4.8780 C   0  0  0  0  0  0  0  0  0  0  0  0
    5.5070   10.2140   -3.8410 C   0  0  0  0  0  0  0  0  0  0  0  0
    4.6130    9.2310   -3.4820 C   0  0  0  0  0  0  0  0  0  0  0  0
    4.8910    8.1270   -4.2460 N   0  0  0  0  0  0  0  0  0  0  0  0
    3.9160    6.7290   -4.2540 S   0  0  0  0  0  0  0  0  0  0  0  0
    4.2160    6.0230   -5.4850 O   0  0  0  0  0  0  0  0  0  0  0  0
    2.5750    7.1770   -3.9320 O   0  0  0  0  0  0  0  0  0  0  0  0
    4.5410    5.7600   -2.9090 C   0  0  0  0  0  0  0  0  0  0  0  0
    3.6830    5.3630   -1.8800 C   0  0  0  0  0  0  0  0  0  0  0  0
    4.1860    4.6120   -0.8190 C   0  0  0  0  0  0  0  0  0  0  0  0
    5.5360    4.2460   -0.7920 C   0  0  0  0  0  0  0  0  0  0  0  0
    6.3890    4.6200   -1.8410 C   0  0  0  0  0  0  0  0  0  0  0  0
    7.8370    4.2570   -1.8600 C   0  0  0  0  0  0  0  0  0  0  0  0
    8.5830    4.8410   -1.0840 O   0  0  0  0  0  0  0  0  0  0  0  0
    8.1980    3.3040   -2.7920 N   0  0  0  0  0  0  0  0  0  0  0  0
    9.4770    2.7320   -3.0160 C   0  0  0  0  0  0  0  0  0  0  0  0
   10.1020    1.9090   -2.0700 C   0  0  0  0  0  0  0  0  0  0  0  0
   11.3650    1.3590   -2.3150 C   0  0  0  0  0  0  0  0  0  0  0  0
   12.0180    1.6240   -3.5130 C   0  0  0  0  0  0  0  0  0  0  0  0
   13.5700    0.9440   -3.8090 Cl  0  0  0  0  0  0  0  0  0  0  0  0
   11.4220    2.4330   -4.4740 C   0  0  0  0  0  0  0  0  0  0  0  0
   10.1530    2.9890   -4.2360 C   0  0  0  0  0  0  0  0  0  0  0  0
    9.5220    3.8440   -5.2790 C   0  0  0  0  0  0  0  0  0  0  0  0
   10.0430    4.8130   -5.8080 O   0  0  0  0  0  0  0  0  0  0  0  0
    8.2810    3.4540   -5.6140 O   0  0  0  0  0  0  0  0  0  0  0  0
    5.8890    5.3870   -2.9000 C   0  0  0  0  0  0  0  0  0  0  0  0
    7.3930   10.2410   -5.6350 C   0  0  0  0  0  0  0  0  0  0  0  0
  1  2  1  0
  2  3  1  0
  3  4  2  0
  4  5  1  0
  5  6  2  0
  6  7  1  0
  7  8  1  0
  8  9  2  0
  9 10  1  0
 10 11  1  0
 11 12  2  0
 11 13  2  0
 11 14  1  0
 14 15  2  0
 15 16  1  0
 16 17  2  0
 17 18  1  0
 18 19  1  0
 19 20  2  0
 19 21  1  0
 21 22  1  0
 22 23  2  0
 23 24  1  0
 24 25  2  0
 25 26  1  0
 25 27  1  0
 27 28  2  0
 28 29  1  0
 29 30  2  0
 29 31  1  0
 18 32  2  0
  7 33  2  0
 33  3  1  0
 10  6  1  0
 32 14  1  0
 28 22  1  0
M  END
$$$$
