KUARAUXPEGUHNO-UHFFFAOYSA-N_6LXA_m8
     RDKit          3D

 33 36  0  0  0  0  0  0  0  0999 V2000
   18.2000   15.5170   -8.5820 C   0  0  0  0  0  0  0  0  0  0  0  0
   17.7170   14.3800   -7.8800 O   0  0  0  0  0  0  0  0  0  0  0  0
   16.5750   14.5440   -7.1410 C   0  0  0  0  0  0  0  0  0  0  0  0
   15.3930   14.4220   -7.8690 C   0  0  0  0  0  0  0  0  0  0  0  0
   14.1390   14.5620   -7.2670 C   0  0  0  0  0  0  0  0  0  0  0  0
   14.0960   14.8340   -5.8900 C   0  0  0  0  0  0  0  0  0  0  0  0
   15.2690   14.9610   -5.1340 C   0  0  0  0  0  0  0  0  0  0  0  0
   14.8900   15.2430   -3.7890 C   0  0  0  0  0  0  0  0  0  0  0  0
   13.5160   15.2980   -3.7430 C   0  0  0  0  0  0  0  0  0  0  0  0
   13.0540   15.0300   -5.0060 N   0  0  0  0  0  0  0  0  0  0  0  0
   11.4130   15.1630   -5.4460 S   0  0  0  0  0  0  0  0  0  0  0  0
   11.3810   15.8590   -6.7180 O   0  0  0  0  0  0  0  0  0  0  0  0
   10.7250   15.6710   -4.2750 O   0  0  0  0  0  0  0  0  0  0  0  0
   10.9070   13.4890   -5.7330 C   0  0  0  0  0  0  0  0  0  0  0  0
   10.5540   12.6740   -4.6540 C   0  0  0  0  0  0  0  0  0  0  0  0
   10.1700   11.3550   -4.8880 C   0  0  0  0  0  0  0  0  0  0  0  0
   10.1250   10.8540   -6.1930 C   0  0  0  0  0  0  0  0  0  0  0  0
   10.4510   11.6830   -7.2780 C   0  0  0  0  0  0  0  0  0  0  0  0
   10.4220   11.1990   -8.6900 C   0  0  0  0  0  0  0  0  0  0  0  0
   10.3640   12.0370   -9.5810 O   0  0  0  0  0  0  0  0  0  0  0  0
   10.4320    9.8270   -8.8460 N   0  0  0  0  0  0  0  0  0  0  0  0
   10.4520    9.0780  -10.0520 C   0  0  0  0  0  0  0  0  0  0  0  0
   10.5510    9.6910  -11.3080 C   0  0  0  0  0  0  0  0  0  0  0  0
   10.5670    8.9300  -12.4820 C   0  0  0  0  0  0  0  0  0  0  0  0
   10.4850    7.5450  -12.4140 C   0  0  0  0  0  0  0  0  0  0  0  0
   10.5070    6.6140  -13.8600 Cl  0  0  0  0  0  0  0  0  0  0  0  0
   10.3910    6.9070  -11.1820 C   0  0  0  0  0  0  0  0  0  0  0  0
   10.3760    7.6640   -9.9970 C   0  0  0  0  0  0  0  0  0  0  0  0
   10.2850    6.9660   -8.6850 C   0  0  0  0  0  0  0  0  0  0  0  0
   11.0000    6.0460   -8.3230 O   0  0  0  0  0  0  0  0  0  0  0  0
    9.3140    7.4460   -7.8890 O   0  0  0  0  0  0  0  0  0  0  0  0
   10.8510   13.0040   -7.0430 C   0  0  0  0  0  0  0  0  0  0  0  0
   16.5210   14.8130   -5.7700 C   0  0  0  0  0  0  0  0  0  0  0  0
  1  2  1  0
  2  3  1  0
  3  4  2  0
  4  5  1  0
  5  6  2  0
  6  7  1  0
  7  8  1  0
  8  9  2  0
  9 10  1  0
 10 11  1  0
 11 12  2  0
 11 13  2  0
 11 14  1  0
 14 15  2  0
 15 16  1  0
 16 17  2  0
 17 18  1  0
 18 19  1  0
 19 20  2  0
 19 21  1  0
 21 22  1  0
 22 23  2  0
 23 24  1  0
 24 25  2  0
 25 26  1  0
 25 27  1  0
 27 28  2  0
 28 29  1  0
 29 30  2  0
 29 31  1  0
 18 32  2  0
  7 33  2  0
 33  3  1  0
 10  6  1  0
 32 14  1  0
 28 22  1  0
M  END
$$$$
