KWGGIRZLUSNBCK-UHFFFAOYSA-N_5U3Q_m4
     RDKit          3D

 35 38  0  0  0  0  0  0  0  0999 V2000
   35.9580  -36.3480  107.3220 C   0  0  0  0  0  0  0  0  0  0  0  0
   35.3370  -36.4850  108.6970 C   0  0  0  0  0  0  0  0  0  0  0  0
   36.3910  -36.6120  109.6500 O   0  0  0  0  0  0  0  0  0  0  0  0
   36.8610  -37.9590  109.7850 C   0  0  1  0  0  0  0  0  0  0  0  0
   38.2810  -37.9080  110.3700 C   0  0  0  0  0  0  0  0  0  0  0  0
   39.3200  -38.4200  109.3930 C   0  0  0  0  0  0  0  0  0  0  0  0
   40.6210  -38.6940  109.8210 C   0  0  0  0  0  0  0  0  0  0  0  0
   41.5920  -39.1790  108.9380 C   0  0  0  0  0  0  0  0  0  0  0  0
   41.2280  -39.3960  107.5990 C   0  0  0  0  0  0  0  0  0  0  0  0
   39.9340  -39.1340  107.1380 C   0  0  0  0  0  0  0  0  0  0  0  0
   38.9750  -38.6410  108.0490 C   0  0  0  0  0  0  0  0  0  0  0  0
   39.8920  -39.4520  105.7450 C   0  0  0  0  0  0  0  0  0  0  0  0
   38.7160  -39.3310  104.8460 C   0  0  0  0  0  0  0  0  0  0  0  0
   41.1510  -39.8930  105.3980 C   0  0  0  0  0  0  0  0  0  0  0  0
   41.9450  -39.8720  106.5190 N   0  0  0  0  0  0  0  0  0  0  0  0
   43.3500  -40.2650  106.5250 C   0  0  0  0  0  0  0  0  0  0  0  0
   43.7310  -40.9690  105.2710 C   0  0  0  0  0  0  0  0  0  0  0  0
   43.4170  -40.4280  104.0380 N   0  0  0  0  0  0  0  0  0  0  0  0
   43.8950  -41.2950  103.1660 C   0  0  0  0  0  0  0  0  0  0  0  0
   43.8460  -41.2590  101.7060 C   0  0  0  0  0  0  0  0  0  0  0  0
   43.0630  -40.3270  101.0110 C   0  0  0  0  0  0  0  0  0  0  0  0
   43.0380  -40.3120   99.6120 C   0  0  0  0  0  0  0  0  0  0  0  0
   43.8040  -41.2260   98.8740 C   0  0  0  0  0  0  0  0  0  0  0  0
   43.7670  -41.2270   97.3660 C   0  0  0  0  0  0  0  0  0  0  0  0
   44.3220  -40.1120   96.8140 F   0  0  0  0  0  0  0  0  0  0  0  0
   42.4970  -41.2940   96.8790 F   0  0  0  0  0  0  0  0  0  0  0  0
   44.4340  -42.2820   96.8180 F   0  0  0  0  0  0  0  0  0  0  0  0
   44.5820  -42.1650   99.5670 C   0  0  0  0  0  0  0  0  0  0  0  0
   44.6040  -42.1780  100.9660 C   0  0  0  0  0  0  0  0  0  0  0  0
   44.5250  -42.3680  103.7390 O   0  0  0  0  0  0  0  0  0  0  0  0
   44.4180  -42.1520  105.0830 C   0  0  0  0  0  0  0  0  0  0  0  0
   45.0120  -43.1680  105.9710 C   0  0  0  0  0  0  0  0  0  0  0  0
   35.9780  -38.7950  110.7160 C   0  0  0  0  0  0  0  0  0  0  0  0
   35.3100  -38.4070  111.6610 O   0  0  0  0  0  0  0  0  0  0  0  0
   35.9490  -40.1040  110.3740 O   0  0  0  0  0  0  0  0  0  0  0  0
  1  2  1  0
  2  3  1  0
  3  4  1  0
  4  5  1  1
  5  6  1  0
  6  7  2  0
  7  8  1  0
  8  9  2  0
  9 10  1  0
 10 11  2  0
 10 12  1  0
 12 13  1  0
 12 14  2  0
 14 15  1  0
 15 16  1  0
 16 17  1  0
 17 18  1  0
 18 19  2  0
 19 20  1  0
 20 21  2  0
 21 22  1  0
 22 23  2  0
 23 24  1  0
 24 25  1  0
 24 26  1  0
 24 27  1  0
 23 28  1  0
 28 29  2  0
 19 30  1  0
 30 31  1  0
 31 32  1  0
  4 33  1  0
 33 34  2  0
 33 35  1  0
 11  6  1  0
 31 17  2  0
 15  9  1  0
 29 20  1  0
M  END
$$$$
