LAUGVCLUYPMNEP-UHFFFAOYSA-N_4UDW_m9
     RDKit          3D

 38 41  0  0  0  0  0  0  0  0999 V2000
  128.1990  -20.6740  159.3330 C   0  0  0  0  0  0  0  0  0  0  0  0
  126.9620  -20.7640  160.0410 O   0  0  0  0  0  0  0  0  0  0  0  0
  127.0990  -20.7550  161.3960 C   0  0  0  0  0  0  0  0  0  0  0  0
  127.8390  -21.4910  162.0350 O   0  0  0  0  0  0  0  0  0  0  0  0
  126.1480  -19.7600  162.0080 C   0  0  0  0  0  0  0  0  0  0  0  0
  126.8530  -18.5200  162.5570 C   0  0  2  0  0  0  0  0  0  0  0  0
  127.9850  -18.9270  163.5310 C   0  0  0  0  0  0  0  0  0  0  0  0
  127.7380  -19.2630  164.6850 O   0  0  0  0  0  0  0  0  0  0  0  0
  129.2330  -18.8220  162.9650 N   0  0  0  0  0  0  0  0  0  0  0  0
  130.4490  -19.0230  163.5910 C   0  0  0  0  0  0  0  0  0  0  0  0
  131.2770  -17.9690  163.5370 N   0  0  0  0  0  0  0  0  0  0  0  0
  132.4760  -18.1110  164.1440 C   0  0  0  0  0  0  0  0  0  0  0  0
  132.8940  -19.2560  164.7960 C   0  0  0  0  0  0  0  0  0  0  0  0
  134.1920  -19.3550  165.4640 C   0  0  0  0  0  0  0  0  0  0  0  0
  134.3210  -18.7720  166.7410 C   0  0  0  0  0  0  0  0  0  0  0  0
  135.5300  -18.8050  167.4410 C   0  0  0  0  0  0  0  0  0  0  0  0
  136.6420  -19.4220  166.8800 C   0  0  0  0  0  0  0  0  0  0  0  0
  136.5450  -20.0080  165.6200 C   0  0  0  0  0  0  0  0  0  0  0  0
  135.3310  -19.9760  164.9130 C   0  0  0  0  0  0  0  0  0  0  0  0
  135.2990  -20.7590  163.3190 S   0  0  0  0  0  0  0  0  0  0  0  0
  136.8980  -21.2080  163.0720 N   0  0  0  0  0  0  0  0  0  0  0  0
  134.5800  -22.0080  163.4210 O   0  0  0  0  0  0  0  0  0  0  0  0
  134.9750  -19.7670  162.3250 O   0  0  0  0  0  0  0  0  0  0  0  0
  131.9540  -20.2690  164.7910 C   0  0  0  0  0  0  0  0  0  0  0  0
  130.7410  -20.1710  164.2060 N   0  0  0  0  0  0  0  0  0  0  0  0
  125.9200  -17.4910  163.1770 C   0  0  0  0  0  0  0  0  0  0  0  0
  126.4890  -16.2480  162.5880 C   0  0  0  0  0  0  0  0  0  0  0  0
  126.0940  -14.9000  163.0590 C   0  0  0  0  0  0  0  0  0  0  0  0
  126.4710  -13.7810  162.3020 C   0  0  0  0  0  0  0  0  0  0  0  0
  126.1220  -12.4940  162.7180 C   0  0  0  0  0  0  0  0  0  0  0  0
  125.3940  -12.3180  163.8930 C   0  0  0  0  0  0  0  0  0  0  0  0
  125.0100  -13.4310  164.6470 C   0  0  0  0  0  0  0  0  0  0  0  0
  124.2350  -13.2370  165.9000 C   0  0  0  0  0  0  0  0  0  0  0  0
  123.5120  -14.1770  166.4160 N   0  0  0  0  0  0  0  0  0  0  0  0
  124.2730  -12.0480  166.5480 N   0  0  0  0  0  0  0  0  0  0  0  0
  125.3580  -14.7230  164.2350 C   0  0  0  0  0  0  0  0  0  0  0  0
  127.3470  -16.4430  161.6370 N   0  0  0  0  0  0  0  0  0  0  0  0
  127.4470  -17.8390  161.4320 O   0  0  0  0  0  0  0  0  0  0  0  0
  1  2  1  0
  2  3  1  0
  3  4  2  0
  3  5  1  0
  6  5  1  6
  6  7  1  0
  7  8  2  0
  7  9  1  0
  9 10  1  0
 10 11  2  0
 11 12  1  0
 12 13  2  0
 13 14  1  0
 14 15  2  0
 15 16  1  0
 16 17  2  0
 17 18  1  0
 18 19  2  0
 19 20  1  0
 20 21  1  0
 20 22  2  0
 20 23  2  0
 13 24  1  0
 24 25  2  0
  6 26  1  0
 26 27  1  0
 27 28  1  0
 28 29  2  0
 29 30  1  0
 30 31  2  0
 31 32  1  0
 32 33  1  0
 33 34  2  3
 33 35  1  0
 32 36  2  0
 27 37  2  0
 37 38  1  0
 38  6  1  0
 25 10  1  0
 36 28  1  0
 19 14  1  0
M  END
$$$$
