LBTQKBBDVONGGY-LFVJCYFKSA-N_4BDS_m1
     RDKit          3D

 30 33  0  0  0  0  0  0  0  0999 V2000
  141.3330  108.9030   34.0330 C   0  0  0  0  0  0  0  0  0  0  0  0
  141.8080  109.2460   35.3290 O   0  0  0  0  0  0  0  0  0  0  0  0
  140.9790  108.9760   36.3820 C   0  0  0  0  0  0  0  0  0  0  0  0
  140.8410  107.7450   37.0230 C   0  0  0  0  0  0  0  0  0  0  0  0
  139.9460  107.6050   38.0890 C   0  0  0  0  0  0  0  0  0  0  0  0
  139.1900  108.6980   38.5270 C   0  0  0  0  0  0  0  0  0  0  0  0
  139.3280  109.9430   37.8960 C   0  0  0  0  0  0  0  0  0  0  0  0
  140.2170  110.0650   36.8180 C   0  0  0  0  0  0  0  0  0  0  0  0
  138.4940  111.1190   38.3250 C   0  0  0  0  0  0  0  0  0  0  0  0
  138.1830  111.0550   39.8180 C   0  0  0  0  0  0  0  0  0  0  0  0
  137.5610  109.7380   40.1850 C   0  0  0  0  0  0  0  0  0  0  0  0
  136.4700  109.5540   40.9520 C   0  0  0  0  0  0  0  0  0  0  0  0
  135.7060  110.6410   41.5640 C   0  0  0  0  0  0  0  0  0  0  0  0
  136.0410  111.1040   42.8390 C   0  0  0  0  0  0  0  0  0  0  0  0
  135.3000  112.1290   43.4300 C   0  0  0  0  0  0  0  0  0  0  0  0
  134.2170  112.7100   42.7510 C   0  0  0  0  0  0  0  0  0  0  0  0
  133.4090  113.8150   43.4040 C   0  0  0  0  0  0  0  0  0  0  0  0
  132.4030  114.4110   42.5030 N   0  0  0  0  0  0  0  0  0  0  0  0
  131.0530  113.9580   42.8530 C   0  0  0  0  0  0  0  0  0  0  0  0
  132.4560  115.8840   42.5580 C   0  0  0  0  0  0  0  0  0  0  0  0
  133.0580  116.5140   41.3180 C   0  0  0  0  0  0  0  0  0  0  0  0
  133.2840  117.8960   41.2580 C   0  0  0  0  0  0  0  0  0  0  0  0
  133.8260  118.4760   40.1080 C   0  0  0  0  0  0  0  0  0  0  0  0
  134.1420  117.6800   39.0080 C   0  0  0  0  0  0  0  0  0  0  0  0
  133.9180  116.3070   39.0540 C   0  0  0  0  0  0  0  0  0  0  0  0
  133.3760  115.7260   40.2010 C   0  0  0  0  0  0  0  0  0  0  0  0
  133.8860  112.2390   41.4740 C   0  0  0  0  0  0  0  0  0  0  0  0
  134.6270  111.2120   40.8840 C   0  0  0  0  0  0  0  0  0  0  0  0
  138.2300  108.5100   39.6490 C   0  0  0  0  0  0  0  0  0  0  0  0
  138.0140  107.3930   40.1050 O   0  0  0  0  0  0  0  0  0  0  0  0
  1  2  1  0
  2  3  1  0
  3  4  2  0
  4  5  1  0
  5  6  2  0
  6  7  1  0
  7  8  2  0
  7  9  1  0
  9 10  1  0
 10 11  1  0
 11 12  2  0
 12 13  1  0
 13 14  2  0
 14 15  1  0
 15 16  2  0
 16 17  1  0
 17 18  1  0
 18 19  1  0
 18 20  1  0
 20 21  1  0
 21 22  2  0
 22 23  1  0
 23 24  2  0
 24 25  1  0
 25 26  2  0
 16 27  1  0
 27 28  2  0
 11 29  1  0
 29 30  2  0
  8  3  1  0
 28 13  1  0
 29  6  1  0
 26 21  1  0
M  END
$$$$
