LHNIIDJUOCFXAP-UHFFFAOYSA-N_4JT6_m2
     RDKit          3D

 35 40  0  0  0  0  0  0  0  0999 V2000
   53.2700   -4.6690  -37.8740 C   0  0  0  0  0  0  0  0  0  0  0  0
   52.8650   -5.2300  -39.5150 S   0  0  0  0  0  0  0  0  0  0  0  0
   54.1050   -5.3770  -40.2470 O   0  0  0  0  0  0  0  0  0  0  0  0
   51.9400   -6.3360  -39.3850 O   0  0  0  0  0  0  0  0  0  0  0  0
   52.0280   -3.9290  -40.1660 N   0  0  0  0  0  0  0  0  0  0  0  0
   51.8990   -3.7940  -41.6360 C   0  0  0  0  0  0  0  0  0  0  0  0
   52.7590   -2.6390  -42.1820 C   0  0  0  0  0  0  0  0  0  0  0  0
   52.5900   -1.3400  -41.4900 N   0  0  0  0  0  0  0  0  0  0  0  0
   51.2860   -0.7120  -41.7650 C   0  0  0  0  0  0  0  0  0  0  0  0
   50.9260   -0.7810  -43.2240 C   0  0  0  0  0  0  0  0  0  0  0  0
   51.6420   -0.3120  -44.3010 C   0  0  0  0  0  0  0  0  0  0  0  0
   50.9960   -0.5640  -45.5470 C   0  0  0  0  0  0  0  0  0  0  0  0
   51.5230   -0.2190  -46.7410 N   0  0  0  0  0  0  0  0  0  0  0  0
   50.7930   -0.5510  -47.8030 C   0  0  0  0  0  0  0  0  0  0  0  0
   51.3020   -0.2100  -49.1440 C   0  0  0  0  0  0  0  0  0  0  0  0
   52.5720    0.3930  -49.3290 C   0  0  0  0  0  0  0  0  0  0  0  0
   53.0740    0.7210  -50.5900 C   0  0  0  0  0  0  0  0  0  0  0  0
   52.3350    0.4620  -51.7410 C   0  0  0  0  0  0  0  0  0  0  0  0
   51.0810   -0.1300  -51.5690 C   0  0  0  0  0  0  0  0  0  0  0  0
   50.1360   -0.5020  -52.4890 N   0  0  0  0  0  0  0  0  0  0  0  0
   49.0330   -1.0460  -51.9560 N   0  0  0  0  0  0  0  0  0  0  0  0
   49.2860   -1.0270  -50.6440 C   0  0  0  0  0  0  0  0  0  0  0  0
   50.5520   -0.4680  -50.3230 C   0  0  0  0  0  0  0  0  0  0  0  0
   49.6030   -1.1780  -47.7480 N   0  0  0  0  0  0  0  0  0  0  0  0
   49.0230   -1.5190  -46.5650 C   0  0  0  0  0  0  0  0  0  0  0  0
   47.7750   -2.1230  -46.6420 N   0  0  0  0  0  0  0  0  0  0  0  0
   47.7410   -3.5830  -46.4480 C   0  0  0  0  0  0  0  0  0  0  0  0
   46.4880   -4.1980  -47.0860 C   0  0  0  0  0  0  0  0  0  0  0  0
   45.2920   -3.5450  -46.6400 O   0  0  0  0  0  0  0  0  0  0  0  0
   45.3300   -2.1650  -47.0240 C   0  0  0  0  0  0  0  0  0  0  0  0
   46.5150   -1.4240  -46.3830 C   0  0  0  0  0  0  0  0  0  0  0  0
   49.7660   -1.2060  -45.4060 C   0  0  0  0  0  0  0  0  0  0  0  0
   49.4700   -1.5080  -43.7290 S   0  0  0  0  0  0  0  0  0  0  0  0
   52.7850   -1.5450  -40.0390 C   0  0  0  0  0  0  0  0  0  0  0  0
   51.9280   -2.6600  -39.4090 C   0  0  0  0  0  0  0  0  0  0  0  0
  1  2  1  0
  2  3  2  0
  2  4  2  0
  2  5  1  0
  5  6  1  0
  6  7  1  0
  7  8  1  0
  8  9  1  0
  9 10  1  0
 10 11  2  0
 11 12  1  0
 12 13  2  0
 13 14  1  0
 14 15  1  0
 15 16  2  0
 16 17  1  0
 17 18  2  0
 18 19  1  0
 19 20  1  0
 20 21  1  0
 21 22  2  0
 22 23  1  0
 14 24  2  0
 24 25  1  0
 25 26  1  0
 26 27  1  0
 27 28  1  0
 28 29  1  0
 29 30  1  0
 30 31  1  0
 25 32  2  0
 32 33  1  0
  8 34  1  0
 34 35  1  0
 35  5  1  0
 33 10  1  0
 32 12  1  0
 23 15  1  0
 31 26  1  0
 23 19  2  0
M  END
$$$$
