LJOCKOTYPPAJJM-OAHLLOKOSA-N_8BXH_m3
     RDKit          3D

 33 36  0  0  0  0  0  0  0  0999 V2000
  -11.9450   11.3330   18.9280 C   0  0  0  0  0  0  0  0  0  0  0  0
  -11.8680   12.7460   19.4810 C   0  0  0  0  0  0  0  0  0  0  0  0
  -13.0450   13.0620   20.2230 O   0  0  0  0  0  0  0  0  0  0  0  0
  -14.2220   12.4020   19.7590 C   0  0  0  0  0  0  0  0  0  0  0  0
  -15.4810   13.2010   20.0960 C   0  0  0  0  0  0  0  0  0  0  0  0
  -15.6350   14.2400   19.1270 O   0  0  0  0  0  0  0  0  0  0  0  0
  -15.7590   15.5030   19.6810 C   0  0  0  0  0  0  0  0  0  0  0  0
  -16.9170   15.8580   20.2640 N   0  0  0  0  0  0  0  0  0  0  0  0
  -16.9470   17.0930   20.7830 C   0  0  0  0  0  0  0  0  0  0  0  0
  -18.1580   17.5470   21.4380 C   0  0  0  0  0  0  0  0  0  0  0  0
  -18.6230   17.2170   22.7280 C   0  0  0  0  0  0  0  0  0  0  0  0
  -19.7790   17.8000   23.0410 N   0  0  0  0  0  0  0  0  0  0  0  0
  -20.0950   18.5390   21.9490 N   0  0  0  0  0  0  0  0  0  0  0  0
  -21.2270   19.3420   21.7890 C   0  0  0  0  0  0  0  0  0  0  0  0
  -21.4170   20.0270   20.6500 C   0  0  0  0  0  0  0  0  0  0  0  0
  -20.4240   19.9160   19.5980 C   0  0  0  0  0  0  0  0  0  0  0  0
  -19.3290   19.1460   19.7380 C   0  0  0  0  0  0  0  0  0  0  0  0
  -19.1230   18.4100   20.9460 C   0  0  0  0  0  0  0  0  0  0  0  0
  -15.9210   17.9680   20.7610 N   0  0  0  0  0  0  0  0  0  0  0  0
  -14.7750   17.5840   20.1660 C   0  0  0  0  0  0  0  0  0  0  0  0
  -13.7970   18.5430   20.1860 N   0  0  0  0  0  0  0  0  0  0  0  0
  -13.0580   19.0750   19.0470 C   0  0  2  0  0  0  0  0  0  0  0  0
  -11.6740   19.5750   19.4990 C   0  0  0  0  0  0  0  0  0  0  0  0
  -11.6180   21.0840   19.7530 C   0  0  0  0  0  0  0  0  0  0  0  0
  -12.9430   21.6410   20.2550 C   0  0  0  0  0  0  0  0  0  0  0  0
  -14.0400   21.3650   19.3280 N   0  0  0  0  0  0  0  0  0  0  0  0
  -15.1560   22.1870   19.3650 C   0  0  0  0  0  0  0  0  0  0  0  0
  -15.2080   23.2650   18.7660 O   0  0  0  0  0  0  0  0  0  0  0  0
  -16.3650   21.7260   20.1870 C   0  0  0  0  0  0  0  0  0  0  0  0
  -16.0050   20.7500   21.1570 O   0  0  0  0  0  0  0  0  0  0  0  0
  -13.8780   20.2220   18.4160 C   0  0  0  0  0  0  0  0  0  0  0  0
  -14.6550   16.3270   19.6030 C   0  0  0  0  0  0  0  0  0  0  0  0
  -13.5240   15.9060   19.0170 F   0  0  0  0  0  0  0  0  0  0  0  0
  1  2  1  0
  2  3  1  0
  3  4  1  0
  4  5  1  0
  5  6  1  0
  6  7  1  0
  7  8  2  0
  8  9  1  0
  9 10  1  0
 10 11  1  0
 11 12  2  0
 12 13  1  0
 13 14  1  0
 14 15  2  0
 15 16  1  0
 16 17  2  0
 17 18  1  0
  9 19  2  0
 19 20  1  0
 20 21  1  0
 22 21  1  1
 22 23  1  0
 23 24  1  0
 24 25  1  0
 25 26  1  0
 26 27  1  0
 27 28  2  0
 27 29  1  0
 29 30  1  0
 26 31  1  0
 20 32  2  0
 32 33  1  0
 32  7  1  0
 18 10  2  0
 31 22  1  0
 18 13  1  0
M  END
$$$$
