LMRBMFGYPWUSQY-HXUWFJFHSA-N_6N7A_m1
     RDKit          3D

 34 38  0  0  0  0  0  0  0  0999 V2000
    5.2270  -28.8160   22.8880 C   0  0  0  0  0  0  0  0  0  0  0  0
    4.5370  -27.4910   23.1920 C   0  0  0  0  0  0  0  0  0  0  0  0
    4.3410  -26.6130   21.9370 C   0  0  0  0  0  0  0  0  0  0  0  0
    2.8400  -26.4310   21.6360 C   0  0  0  0  0  0  0  0  0  0  0  0
    2.2040  -27.6630   21.0040 C   0  0  0  0  0  0  0  0  0  0  0  0
    5.0350  -25.3320   22.0570 N   0  0  0  0  0  0  0  0  0  0  0  0
    5.2210  -24.3880   21.0820 C   0  0  0  0  0  0  0  0  0  0  0  0
    5.8960  -23.3340   21.6680 C   0  0  0  0  0  0  0  0  0  0  0  0
    6.3480  -22.0810   21.0960 C   0  0  0  0  0  0  0  0  0  0  0  0
    5.4270  -21.2700   20.6560 N   0  0  0  0  0  0  0  0  0  0  0  0
    5.8080  -20.0570   20.1070 C   0  0  0  0  0  0  0  0  0  0  0  0
    4.7160  -19.2540   19.6470 C   0  0  0  0  0  0  0  0  0  0  0  0
    3.3440  -19.3930   19.9460 C   0  0  0  0  0  0  0  0  0  0  0  0
    2.5900  -18.4660   19.3440 N   0  0  0  0  0  0  0  0  0  0  0  0
    3.4780  -17.7560   18.6260 N   0  0  0  0  0  0  0  0  0  0  0  0
    3.0190  -16.6750   17.7820 C   0  0  0  0  0  0  0  0  0  0  0  0
    1.6280  -16.8970   17.1900 C   0  0  2  0  0  0  0  0  0  0  0  0
    1.7840  -17.5160   15.8990 O   0  0  0  0  0  0  0  0  0  0  0  0
    0.8400  -15.5810   17.0120 C   0  0  0  0  0  0  0  0  0  0  0  0
   -0.1110  -15.4120   18.1290 N   0  0  0  0  0  0  0  0  0  0  0  0
   -1.5190  -15.4450   17.6360 C   0  0  0  0  0  0  0  0  0  0  0  0
   -1.8640  -16.3420   18.8520 C   0  0  0  0  0  0  0  0  0  0  0  0
   -2.8250  -17.3960   18.6160 O   0  0  0  0  0  0  0  0  0  0  0  0
   -3.8460  -17.5230   19.5970 C   0  0  0  0  0  0  0  0  0  0  0  0
   -0.3630  -16.7220   18.7910 C   0  0  0  0  0  0  0  0  0  0  0  0
    4.7690  -18.1730   18.7910 C   0  0  0  0  0  0  0  0  0  0  0  0
    7.0960  -19.6810   20.0240 C   0  0  0  0  0  0  0  0  0  0  0  0
    8.0840  -20.5330   20.4820 N   0  0  0  0  0  0  0  0  0  0  0  0
    9.4240  -20.3360   20.4750 N   0  0  0  0  0  0  0  0  0  0  0  0
    9.9320  -21.4720   20.9500 C   0  0  0  0  0  0  0  0  0  0  0  0
    8.9380  -22.4040   21.2900 C   0  0  0  0  0  0  0  0  0  0  0  0
    7.7510  -21.7640   21.0130 C   0  0  0  0  0  0  0  0  0  0  0  0
    6.1000  -23.7800   22.9980 C   0  0  0  0  0  0  0  0  0  0  0  0
    5.5640  -24.9770   23.2400 N   0  0  0  0  0  0  0  0  0  0  0  0
  1  2  1  0
  2  3  1  0
  3  4  1  0
  4  5  1  0
  3  6  1  0
  6  7  1  0
  7  8  2  0
  8  9  1  0
  9 10  2  0
 10 11  1  0
 11 12  1  0
 12 13  1  0
 13 14  2  0
 14 15  1  0
 15 16  1  0
 16 17  1  0
 17 18  1  6
 17 19  1  0
 19 20  1  0
 20 21  1  0
 21 22  1  0
 22 23  1  0
 23 24  1  0
 22 25  1  0
 15 26  1  0
 11 27  2  0
 27 28  1  0
 28 29  1  0
 29 30  2  0
 30 31  1  0
 31 32  2  0
  8 33  1  0
 33 34  2  0
 34  6  1  0
 32  9  1  0
 26 12  2  0
 32 28  1  0
 25 20  1  0
M  END
$$$$
