LMRBMFGYPWUSQY-HXUWFJFHSA-N_3LXP_m7
     RDKit          3D

 34 38  0  0  0  0  0  0  0  0999 V2000
   -4.8700   31.9170  -27.2780 C   0  0  0  0  0  0  0  0  0  0  0  0
   -4.8870   32.1880  -28.7780 C   0  0  0  0  0  0  0  0  0  0  0  0
   -3.7920   31.4140  -29.5430 C   0  0  0  0  0  0  0  0  0  0  0  0
   -2.6420   31.0260  -28.5910 C   0  0  0  0  0  0  0  0  0  0  0  0
   -1.2750   31.4770  -29.0910 C   0  0  0  0  0  0  0  0  0  0  0  0
   -4.3360   30.2540  -30.2450 N   0  0  0  0  0  0  0  0  0  0  0  0
   -3.9570   28.9440  -30.1150 C   0  0  0  0  0  0  0  0  0  0  0  0
   -4.7750   28.2040  -30.9470 C   0  0  0  0  0  0  0  0  0  0  0  0
   -4.8070   26.7770  -31.1990 C   0  0  0  0  0  0  0  0  0  0  0  0
   -4.1140   26.0230  -30.3920 N   0  0  0  0  0  0  0  0  0  0  0  0
   -4.1180   24.6520  -30.5880 C   0  0  0  0  0  0  0  0  0  0  0  0
   -3.3140   23.9250  -29.6510 C   0  0  0  0  0  0  0  0  0  0  0  0
   -2.2570   23.0300  -29.9200 C   0  0  0  0  0  0  0  0  0  0  0  0
   -1.7170   22.5230  -28.8060 N   0  0  0  0  0  0  0  0  0  0  0  0
   -2.4580   23.0660  -27.8230 N   0  0  0  0  0  0  0  0  0  0  0  0
   -2.2000   22.7050  -26.4460 C   0  0  0  0  0  0  0  0  0  0  0  0
   -1.6340   23.8450  -25.6010 C   0  0  2  0  0  0  0  0  0  0  0  0
   -2.7380   24.5800  -25.0410 O   0  0  0  0  0  0  0  0  0  0  0  0
   -0.7610   24.8190  -26.4230 C   0  0  0  0  0  0  0  0  0  0  0  0
    0.6650   24.5950  -26.1150 N   0  0  0  0  0  0  0  0  0  0  0  0
    1.2650   25.8030  -25.4760 C   0  0  0  0  0  0  0  0  0  0  0  0
    1.9770   24.8520  -24.4790 C   0  0  0  0  0  0  0  0  0  0  0  0
    2.0870   25.3220  -23.1160 O   0  0  0  0  0  0  0  0  0  0  0  0
    3.4120   25.4690  -22.6260 C   0  0  0  0  0  0  0  0  0  0  0  0
    0.8040   23.8940  -24.8090 C   0  0  0  0  0  0  0  0  0  0  0  0
   -3.4130   23.9320  -28.2760 C   0  0  0  0  0  0  0  0  0  0  0  0
   -4.8230   24.0700  -31.5730 C   0  0  0  0  0  0  0  0  0  0  0  0
   -5.5580   24.8580  -32.4390 N   0  0  0  0  0  0  0  0  0  0  0  0
   -6.3170   24.4590  -33.4880 N   0  0  0  0  0  0  0  0  0  0  0  0
   -6.7490   25.5930  -34.0390 C   0  0  0  0  0  0  0  0  0  0  0  0
   -6.3000   26.7300  -33.3470 C   0  0  0  0  0  0  0  0  0  0  0  0
   -5.5610   26.2320  -32.2980 C   0  0  0  0  0  0  0  0  0  0  0  0
   -5.5850   29.1910  -31.5640 C   0  0  0  0  0  0  0  0  0  0  0  0
   -5.3340   30.4260  -31.1270 N   0  0  0  0  0  0  0  0  0  0  0  0
  1  2  1  0
  2  3  1  0
  3  4  1  0
  4  5  1  0
  3  6  1  0
  6  7  1  0
  7  8  2  0
  8  9  1  0
  9 10  2  0
 10 11  1  0
 11 12  1  0
 12 13  1  0
 13 14  2  0
 14 15  1  0
 15 16  1  0
 16 17  1  0
 17 18  1  6
 17 19  1  0
 19 20  1  0
 20 21  1  0
 21 22  1  0
 22 23  1  0
 23 24  1  0
 22 25  1  0
 15 26  1  0
 11 27  2  0
 27 28  1  0
 28 29  1  0
 29 30  2  0
 30 31  1  0
 31 32  2  0
  8 33  1  0
 33 34  2  0
 34  6  1  0
 32  9  1  0
 26 12  2  0
 32 28  1  0
 25 20  1  0
M  END
$$$$
