LMRBMFGYPWUSQY-HXUWFJFHSA-N_6N7A_m2
     RDKit          3D

 34 38  0  0  0  0  0  0  0  0999 V2000
    5.4390  -28.7200   22.7960 C   0  0  0  0  0  0  0  0  0  0  0  0
    4.4400  -27.5910   23.0230 C   0  0  0  0  0  0  0  0  0  0  0  0
    4.3900  -26.5860   21.8530 C   0  0  0  0  0  0  0  0  0  0  0  0
    2.9310  -26.3210   21.4320 C   0  0  0  0  0  0  0  0  0  0  0  0
    2.1870  -27.5880   21.0280 C   0  0  0  0  0  0  0  0  0  0  0  0
    5.1020  -25.3490   22.1680 N   0  0  0  0  0  0  0  0  0  0  0  0
    5.2970  -24.2660   21.3530 C   0  0  0  0  0  0  0  0  0  0  0  0
    5.9880  -23.3250   22.0930 C   0  0  0  0  0  0  0  0  0  0  0  0
    6.4550  -22.0040   21.7230 C   0  0  0  0  0  0  0  0  0  0  0  0
    5.5640  -21.0520   21.6950 N   0  0  0  0  0  0  0  0  0  0  0  0
    5.9630  -19.7710   21.3540 C   0  0  0  0  0  0  0  0  0  0  0  0
    4.9000  -18.8110   21.3450 C   0  0  0  0  0  0  0  0  0  0  0  0
    3.7890  -18.7310   22.2110 C   0  0  0  0  0  0  0  0  0  0  0  0
    2.9840  -17.7030   21.9200 N   0  0  0  0  0  0  0  0  0  0  0  0
    3.5610  -17.1470   20.8400 N   0  0  0  0  0  0  0  0  0  0  0  0
    2.9340  -16.0150   20.1940 C   0  0  0  0  0  0  0  0  0  0  0  0
    1.5460  -16.3130   19.6280 C   0  0  2  0  0  0  0  0  0  0  0  0
    1.5930  -17.5980   18.9770 O   0  0  0  0  0  0  0  0  0  0  0  0
    1.0840  -15.2580   18.5990 C   0  0  0  0  0  0  0  0  0  0  0  0
   -0.3590  -14.9930   18.7690 N   0  0  0  0  0  0  0  0  0  0  0  0
   -1.1630  -15.8040   17.8080 C   0  0  0  0  0  0  0  0  0  0  0  0
   -2.1460  -16.1020   18.9700 C   0  0  0  0  0  0  0  0  0  0  0  0
   -2.7130  -17.4320   19.0020 O   0  0  0  0  0  0  0  0  0  0  0  0
   -4.0920  -17.4990   19.3360 C   0  0  0  0  0  0  0  0  0  0  0  0
   -0.9100  -15.8350   19.8660 C   0  0  0  0  0  0  0  0  0  0  0  0
    4.7250  -17.7590   20.4690 C   0  0  0  0  0  0  0  0  0  0  0  0
    7.2400  -19.4710   21.0630 C   0  0  0  0  0  0  0  0  0  0  0  0
    8.1940  -20.4700   21.0830 N   0  0  0  0  0  0  0  0  0  0  0  0
    9.5180  -20.3650   20.8120 N   0  0  0  0  0  0  0  0  0  0  0  0
    9.9770  -21.6130   20.8960 C   0  0  0  0  0  0  0  0  0  0  0  0
    8.9730  -22.5320   21.2420 C   0  0  0  0  0  0  0  0  0  0  0  0
    7.8370  -21.7680   21.3920 C   0  0  0  0  0  0  0  0  0  0  0  0
    6.1920  -23.9770   23.3360 C   0  0  0  0  0  0  0  0  0  0  0  0
    5.6410  -25.1910   23.3890 N   0  0  0  0  0  0  0  0  0  0  0  0
  1  2  1  0
  2  3  1  0
  3  4  1  0
  4  5  1  0
  3  6  1  0
  6  7  1  0
  7  8  2  0
  8  9  1  0
  9 10  2  0
 10 11  1  0
 11 12  1  0
 12 13  1  0
 13 14  2  0
 14 15  1  0
 15 16  1  0
 16 17  1  0
 17 18  1  6
 17 19  1  0
 19 20  1  0
 20 21  1  0
 21 22  1  0
 22 23  1  0
 23 24  1  0
 22 25  1  0
 15 26  1  0
 11 27  2  0
 27 28  1  0
 28 29  1  0
 29 30  2  0
 30 31  1  0
 31 32  2  0
  8 33  1  0
 33 34  2  0
 34  6  1  0
 32  9  1  0
 26 12  2  0
 32 28  1  0
 25 20  1  0
M  END
$$$$
