LNSFUBYHUNTELH-UHFFFAOYSA-N_4EY7_m4
     RDKit          3D

 27 29  0  0  0  0  0  0  0  0999 V2000
  -21.6340  -40.7430   26.9040 C   0  0  0  0  0  0  0  0  0  0  0  0
  -21.1290  -41.4660   25.6530 C   0  0  0  0  0  0  0  0  0  0  0  0
  -21.3290  -40.6030   24.4050 C   0  0  0  0  0  0  0  0  0  0  0  0
  -19.6830  -41.9010   25.8050 C   0  0  0  0  0  0  0  0  0  0  0  0
  -19.0670  -41.9950   27.0580 C   0  0  0  0  0  0  0  0  0  0  0  0
  -17.7320  -42.3990   27.1700 C   0  0  0  0  0  0  0  0  0  0  0  0
  -16.9840  -42.7180   26.0320 C   0  0  0  0  0  0  0  0  0  0  0  0
  -15.6520  -43.1150   26.2270 N   0  0  0  0  0  0  0  0  0  0  0  0
  -14.5780  -42.9240   25.4060 C   0  0  0  0  0  0  0  0  0  0  0  0
  -14.5430  -42.3660   24.3200 O   0  0  0  0  0  0  0  0  0  0  0  0
  -13.4890  -43.4760   26.0080 O   0  0  0  0  0  0  0  0  0  0  0  0
  -13.7950  -44.5050   26.9600 C   0  0  0  0  0  0  0  0  0  0  0  0
  -12.5470  -44.8060   27.7970 C   0  0  2  0  0  0  0  0  0  0  0  0
  -12.0750  -46.2530   27.6020 C   0  0  0  0  0  0  0  0  0  0  0  0
  -10.9080  -46.5650   28.5300 C   0  0  0  0  0  0  0  0  0  0  0  0
  -11.2410  -46.2220   29.9830 C   0  0  0  0  0  0  0  0  0  0  0  0
  -11.6440  -44.8120   30.1150 N   0  0  0  0  0  0  0  0  0  0  0  0
  -11.9240  -44.4640   31.5220 C   0  0  0  0  0  0  0  0  0  0  0  0
  -10.7320  -43.8760   32.2500 C   0  0  0  0  0  0  0  0  0  0  0  0
  -10.9120  -42.9180   33.2560 C   0  0  0  0  0  0  0  0  0  0  0  0
   -9.8110  -42.3630   33.9130 C   0  0  0  0  0  0  0  0  0  0  0  0
   -8.5200  -42.7580   33.5660 C   0  0  0  0  0  0  0  0  0  0  0  0
   -8.3270  -43.7060   32.5630 C   0  0  0  0  0  0  0  0  0  0  0  0
   -9.4260  -44.2610   31.9070 C   0  0  0  0  0  0  0  0  0  0  0  0
  -12.8230  -44.5240   29.2820 C   0  0  0  0  0  0  0  0  0  0  0  0
  -17.5920  -42.6260   24.7810 C   0  0  0  0  0  0  0  0  0  0  0  0
  -18.9280  -42.2210   24.6690 C   0  0  0  0  0  0  0  0  0  0  0  0
  1  2  1  0
  2  3  1  0
  2  4  1  0
  4  5  2  0
  5  6  1  0
  6  7  2  0
  7  8  1  0
  8  9  1  0
  9 10  2  0
  9 11  1  0
 11 12  1  0
 13 12  1  6
 13 14  1  0
 14 15  1  0
 15 16  1  0
 16 17  1  0
 17 18  1  0
 18 19  1  0
 19 20  2  0
 20 21  1  0
 21 22  2  0
 22 23  1  0
 23 24  2  0
 17 25  1  0
  7 26  1  0
 26 27  2  0
 27  4  1  0
 25 13  1  0
 24 19  1  0
M  END
$$$$
