LNSFUBYHUNTELH-UHFFFAOYSA-N_4EY7_m2
     RDKit          3D

 27 29  0  0  0  0  0  0  0  0999 V2000
  -20.7950  -41.1170   26.8170 C   0  0  0  0  0  0  0  0  0  0  0  0
  -20.0930  -41.9400   25.7330 C   0  0  0  0  0  0  0  0  0  0  0  0
  -20.2010  -41.2510   24.3700 C   0  0  0  0  0  0  0  0  0  0  0  0
  -18.6480  -42.2280   26.0990 C   0  0  0  0  0  0  0  0  0  0  0  0
  -18.2200  -42.2830   27.4310 C   0  0  0  0  0  0  0  0  0  0  0  0
  -16.8820  -42.5520   27.7400 C   0  0  0  0  0  0  0  0  0  0  0  0
  -15.9440  -42.7730   26.7270 C   0  0  0  0  0  0  0  0  0  0  0  0
  -14.6220  -43.0370   27.1190 N   0  0  0  0  0  0  0  0  0  0  0  0
  -13.8430  -44.1140   26.8130 C   0  0  0  0  0  0  0  0  0  0  0  0
  -14.1280  -45.0870   26.1300 O   0  0  0  0  0  0  0  0  0  0  0  0
  -12.6330  -43.9390   27.4120 O   0  0  0  0  0  0  0  0  0  0  0  0
  -11.9410  -42.7470   27.0130 C   0  0  0  0  0  0  0  0  0  0  0  0
  -10.8370  -42.4400   28.0310 C   0  0  2  0  0  0  0  0  0  0  0  0
   -9.4420  -42.5870   27.4080 C   0  0  0  0  0  0  0  0  0  0  0  0
   -8.3620  -42.3950   28.4660 C   0  0  0  0  0  0  0  0  0  0  0  0
   -8.5920  -43.3070   29.6730 C   0  0  0  0  0  0  0  0  0  0  0  0
   -9.9270  -43.0900   30.2530 N   0  0  0  0  0  0  0  0  0  0  0  0
  -10.1370  -43.9350   31.4450 C   0  0  0  0  0  0  0  0  0  0  0  0
  -11.5680  -43.9370   31.9430 C   0  0  0  0  0  0  0  0  0  0  0  0
  -12.3830  -45.0630   31.7650 C   0  0  0  0  0  0  0  0  0  0  0  0
  -13.7080  -45.0560   32.2070 C   0  0  0  0  0  0  0  0  0  0  0  0
  -14.2310  -43.9220   32.8270 C   0  0  0  0  0  0  0  0  0  0  0  0
  -13.4330  -42.7950   33.0040 C   0  0  0  0  0  0  0  0  0  0  0  0
  -12.1090  -42.8010   32.5630 C   0  0  0  0  0  0  0  0  0  0  0  0
  -10.9790  -43.3540   29.2590 C   0  0  0  0  0  0  0  0  0  0  0  0
  -16.3650  -42.7200   25.3990 C   0  0  0  0  0  0  0  0  0  0  0  0
  -17.7040  -42.4500   25.0880 C   0  0  0  0  0  0  0  0  0  0  0  0
  1  2  1  0
  2  3  1  0
  2  4  1  0
  4  5  2  0
  5  6  1  0
  6  7  2  0
  7  8  1  0
  8  9  1  0
  9 10  2  0
  9 11  1  0
 11 12  1  0
 13 12  1  6
 13 14  1  0
 14 15  1  0
 15 16  1  0
 16 17  1  0
 17 18  1  0
 18 19  1  0
 19 20  2  0
 20 21  1  0
 21 22  2  0
 22 23  1  0
 23 24  2  0
 17 25  1  0
  7 26  1  0
 26 27  2  0
 27  4  1  0
 25 13  1  0
 24 19  1  0
M  END
$$$$
