LOCCAHWMIIHOFH-UHFFFAOYSA-N_4L23_m5
     RDKit          3D

 34 38  0  0  0  0  0  0  0  0999 V2000
   34.6040   53.3140   47.6000 C   0  0  0  0  0  0  0  0  0  0  0  0
   35.0810   51.6360   47.9740 S   0  0  0  0  0  0  0  0  0  0  0  0
   33.9180   50.9540   48.5020 O   0  0  0  0  0  0  0  0  0  0  0  0
   36.3200   51.6840   48.7180 O   0  0  0  0  0  0  0  0  0  0  0  0
   35.4160   50.9860   46.4540 N   0  0  0  0  0  0  0  0  0  0  0  0
   34.8010   49.6710   46.1240 C   0  0  0  0  0  0  0  0  0  0  0  0
   35.4840   49.0600   44.8840 C   0  0  0  0  0  0  0  0  0  0  0  0
   35.4340   49.9640   43.7120 N   0  0  0  0  0  0  0  0  0  0  0  0
   36.1250   49.3870   42.5430 C   0  0  0  0  0  0  0  0  0  0  0  0
   35.3020   48.3020   41.9170 C   0  0  0  0  0  0  0  0  0  0  0  0
   34.0230   47.8910   42.2380 C   0  0  0  0  0  0  0  0  0  0  0  0
   33.7230   46.8730   41.3650 N   0  0  0  0  0  0  0  0  0  0  0  0
   32.5810   46.1020   41.1830 C   0  0  0  0  0  0  0  0  0  0  0  0
   31.1950   46.4020   42.1800 Cl  0  0  0  0  0  0  0  0  0  0  0  0
   32.6120   45.1690   40.2020 C   0  0  0  0  0  0  0  0  0  0  0  0
   31.4600   44.3020   39.9050 C   0  0  0  0  0  0  0  0  0  0  0  0
   31.0900   43.9190   38.6330 C   0  0  0  0  0  0  0  0  0  0  0  0
   30.0270   43.1300   38.3570 N   0  0  0  0  0  0  0  0  0  0  0  0
   29.2990   42.7230   39.4020 C   0  0  0  0  0  0  0  0  0  0  0  0
   28.2260   41.9240   39.1510 N   0  0  0  0  0  0  0  0  0  0  0  0
   29.5480   43.0470   40.6750 N   0  0  0  0  0  0  0  0  0  0  0  0
   30.6210   43.8380   40.8970 C   0  0  0  0  0  0  0  0  0  0  0  0
   33.7130   44.9660   39.3790 N   0  0  0  0  0  0  0  0  0  0  0  0
   34.8200   45.6670   39.5290 C   0  0  0  0  0  0  0  0  0  0  0  0
   35.8850   45.3850   38.6710 N   0  0  0  0  0  0  0  0  0  0  0  0
   37.0430   44.5710   39.0750 C   0  0  0  0  0  0  0  0  0  0  0  0
   37.6950   43.8800   37.8690 C   0  0  0  0  0  0  0  0  0  0  0  0
   38.0010   44.8030   36.8180 O   0  0  0  0  0  0  0  0  0  0  0  0
   36.7940   45.4250   36.3590 C   0  0  0  0  0  0  0  0  0  0  0  0
   36.1220   46.2220   37.4800 C   0  0  0  0  0  0  0  0  0  0  0  0
   34.8350   46.6880   40.5780 C   0  0  0  0  0  0  0  0  0  0  0  0
   35.7980   47.5330   40.8840 N   0  0  0  0  0  0  0  0  0  0  0  0
   36.0580   51.2560   44.0730 C   0  0  0  0  0  0  0  0  0  0  0  0
   35.3860   51.9150   45.2930 C   0  0  0  0  0  0  0  0  0  0  0  0
  1  2  1  0
  2  3  2  0
  2  4  2  0
  2  5  1  0
  5  6  1  0
  6  7  1  0
  7  8  1  0
  8  9  1  0
  9 10  1  0
 10 11  2  0
 11 12  1  0
 12 13  1  0
 13 14  1  0
 13 15  2  0
 15 16  1  0
 16 17  2  0
 17 18  1  0
 18 19  2  0
 19 20  1  0
 19 21  1  0
 21 22  2  0
 15 23  1  0
 23 24  2  0
 24 25  1  0
 25 26  1  0
 26 27  1  0
 27 28  1  0
 28 29  1  0
 29 30  1  0
 24 31  1  0
 31 32  2  0
  8 33  1  0
 33 34  1  0
 34  5  1  0
 32 10  1  0
 31 12  1  0
 22 16  1  0
 30 25  1  0
M  END
$$$$
