LSWSHDRNBQEKKN-XMMPIXPASA-N_6LXA_m8
     RDKit          3D

 30 32  0  0  0  0  0  0  0  0999 V2000
   14.6440    0.8670   -3.9760 C   0  0  0  0  0  0  0  0  0  0  0  0
   13.8220    1.5980   -2.9110 C   0  0  0  0  0  0  0  0  0  0  0  0
   14.6080    1.6520   -1.5990 C   0  0  0  0  0  0  0  0  0  0  0  0
   12.4570    0.9030   -2.7380 C   0  0  0  0  0  0  0  0  0  0  0  0
   11.2940    1.6970   -3.2840 C   0  0  0  0  0  0  0  0  0  0  0  0
   10.9540    1.6250   -4.6400 C   0  0  0  0  0  0  0  0  0  0  0  0
    9.8780    2.3630   -5.1500 C   0  0  0  0  0  0  0  0  0  0  0  0
    9.1230    3.1870   -4.3130 C   0  0  0  0  0  0  0  0  0  0  0  0
    8.0530    3.9370   -4.7220 O   0  0  0  0  0  0  0  0  0  0  0  0
    7.7600    3.9770   -6.1160 C   0  0  0  0  0  0  0  0  0  0  0  0
    8.4890    5.1670   -6.7270 C   0  0  0  0  0  0  0  0  0  0  0  0
    9.6200    4.7310   -7.6580 C   0  0  0  0  0  0  0  0  0  0  0  0
   10.5440    5.8030   -7.8580 O   0  0  0  0  0  0  0  0  0  0  0  0
   10.7350    6.2730   -9.1290 C   0  0  0  0  0  0  0  0  0  0  0  0
   11.6510    5.5360   -9.8830 C   0  0  0  0  0  0  0  0  0  0  0  0
   11.9370    5.8900  -11.2040 C   0  0  0  0  0  0  0  0  0  0  0  0
   11.3000    6.9880  -11.7930 C   0  0  0  0  0  0  0  0  0  0  0  0
   10.4010    7.7360  -11.0280 C   0  0  0  0  0  0  0  0  0  0  0  0
   10.1100    7.3750   -9.7090 C   0  0  0  0  0  0  0  0  0  0  0  0
    9.7280    8.8300  -11.5060 O   0  0  0  0  0  0  0  0  0  0  0  0
   10.2240    9.3970  -12.7280 C   0  0  1  0  0  0  0  0  0  0  0  0
    9.0890   10.2850  -13.2570 C   0  0  0  0  0  0  0  0  0  0  0  0
   11.4300   10.3190  -12.4700 C   0  0  0  0  0  0  0  0  0  0  0  0
   12.4400   10.4350  -13.1480 O   0  0  0  0  0  0  0  0  0  0  0  0
   11.3190   11.0420  -11.3320 O   0  0  0  0  0  0  0  0  0  0  0  0
   10.5350    8.3000  -13.7540 C   0  0  0  0  0  0  0  0  0  0  0  0
   11.6040    7.3600  -13.2120 C   0  0  0  0  0  0  0  0  0  0  0  0
    9.4580    3.2520   -2.9520 C   0  0  0  0  0  0  0  0  0  0  0  0
    8.5660    4.2480   -1.8540 Cl  0  0  0  0  0  0  0  0  0  0  0  0
   10.5330    2.5160   -2.4430 C   0  0  0  0  0  0  0  0  0  0  0  0
  1  2  1  0
  2  3  1  0
  2  4  1  0
  4  5  1  0
  5  6  2  0
  6  7  1  0
  7  8  2  0
  8  9  1  0
  9 10  1  0
 10 11  1  0
 11 12  1  0
 12 13  1  0
 13 14  1  0
 14 15  2  0
 15 16  1  0
 16 17  2  0
 17 18  1  0
 18 19  2  0
 18 20  1  0
 20 21  1  0
 21 22  1  6
 21 23  1  0
 23 24  2  0
 23 25  1  0
 21 26  1  0
 26 27  1  0
  8 28  1  0
 28 29  1  0
 28 30  2  0
 30  5  1  0
 19 14  1  0
 27 17  1  0
M  END
$$$$
