LUYJDCJUSBGCTK-UHFFFAOYSA-N_6N7A_m3
     RDKit          3D

 25 27  0  0  0  0  0  0  0  0999 V2000
    8.7630  -22.9560   23.4090 C   0  0  0  0  0  0  0  0  0  0  0  0
    8.1040  -24.2350   23.1900 N   0  0  0  0  0  0  0  0  0  0  0  0
    8.4460  -25.3610   23.9740 C   0  0  0  0  0  0  0  0  0  0  0  0
    7.5510  -26.4080   24.0080 N   0  0  0  0  0  0  0  0  0  0  0  0
    7.8090  -27.4920   24.7590 C   0  0  0  0  0  0  0  0  0  0  0  0
    8.8880  -27.7320   25.5120 N   0  0  0  0  0  0  0  0  0  0  0  0
    9.7530  -26.7140   25.4570 C   0  0  0  0  0  0  0  0  0  0  0  0
   10.9410  -26.7030   26.1350 N   0  0  0  0  0  0  0  0  0  0  0  0
   11.6090  -25.5380   25.8810 C   0  0  0  0  0  0  0  0  0  0  0  0
   10.8260  -24.7920   25.0250 C   0  0  0  0  0  0  0  0  0  0  0  0
    9.6290  -25.5260   24.7430 C   0  0  0  0  0  0  0  0  0  0  0  0
    7.0720  -24.4020   22.2550 N   0  0  0  0  0  0  0  0  0  0  0  0
    7.4640  -24.2470   20.8620 C   0  0  0  0  0  0  0  0  0  0  0  0
    6.1160  -24.1670   20.1440 C   0  0  0  0  0  0  0  0  0  0  0  0
    5.0670  -23.9030   21.2490 C   0  0  1  0  0  0  0  0  0  0  0  0
    4.1410  -22.7430   20.8730 C   0  0  0  0  0  0  0  0  0  0  0  0
    4.2270  -25.1730   21.4940 C   0  0  0  0  0  0  0  0  0  0  0  0
    3.1480  -25.3730   20.9400 O   0  0  0  0  0  0  0  0  0  0  0  0
    4.7880  -26.1120   22.3290 N   0  0  0  0  0  0  0  0  0  0  0  0
    4.1140  -27.3670   22.6360 C   0  0  0  0  0  0  0  0  0  0  0  0
    4.9990  -28.6140   22.5960 C   0  0  0  0  0  0  0  0  0  0  0  0
    4.4180  -29.5980   21.8670 F   0  0  0  0  0  0  0  0  0  0  0  0
    5.1730  -29.1050   23.8470 F   0  0  0  0  0  0  0  0  0  0  0  0
    6.2210  -28.3820   22.0770 F   0  0  0  0  0  0  0  0  0  0  0  0
    5.9030  -23.5560   22.4850 C   0  0  0  0  0  0  0  0  0  0  0  0
  1  2  1  0
  2  3  1  0
  3  4  2  0
  4  5  1  0
  5  6  2  0
  6  7  1  0
  7  8  1  0
  8  9  1  0
  9 10  2  0
 10 11  1  0
  2 12  1  0
 12 13  1  0
 13 14  1  0
 14 15  1  0
 15 16  1  6
 15 17  1  0
 17 18  2  0
 17 19  1  0
 19 20  1  0
 20 21  1  0
 21 22  1  0
 21 23  1  0
 21 24  1  0
 15 25  1  0
 11  3  1  0
 25 12  1  0
 11  7  2  0
M  END
$$$$
