LXCYBYBVIQAOJW-UHFFFAOYSA-N_4BDS_m9
     RDKit          3D

 29 32  0  0  0  0  0  0  0  0999 V2000
  133.5720  112.7110   34.9860 C   0  0  0  0  0  0  0  0  0  0  0  0
  133.7320  113.8260   35.9570 C   0  0  0  0  0  0  0  0  0  0  0  0
  133.8140  115.1330   35.5460 N   0  0  0  0  0  0  0  0  0  0  0  0
  133.9720  115.9700   36.6240 C   0  0  0  0  0  0  0  0  0  0  0  0
  134.1030  117.3630   36.6700 C   0  0  0  0  0  0  0  0  0  0  0  0
  134.2490  117.9580   37.9260 C   0  0  0  0  0  0  0  0  0  0  0  0
  134.2620  117.1890   39.0870 C   0  0  0  0  0  0  0  0  0  0  0  0
  134.1290  115.7970   39.0210 C   0  0  0  0  0  0  0  0  0  0  0  0
  133.9800  115.1710   37.7660 C   0  0  0  0  0  0  0  0  0  0  0  0
  133.8360  113.8100   37.3400 C   0  0  0  0  0  0  0  0  0  0  0  0
  133.8080  112.6000   38.2270 C   0  0  0  0  0  0  0  0  0  0  0  0
  135.1760  111.9710   38.4520 C   0  0  0  0  0  0  0  0  0  0  0  0
  136.0820  112.5860   39.0130 O   0  0  0  0  0  0  0  0  0  0  0  0
  135.3580  110.7150   37.9090 N   0  0  0  0  0  0  0  0  0  0  0  0
  136.6090  109.9970   38.0200 C   0  0  0  0  0  0  0  0  0  0  0  0
  137.6420  110.5270   37.0260 C   0  0  0  0  0  0  0  0  0  0  0  0
  138.9530  110.9730   37.7010 C   0  0  0  0  0  0  0  0  0  0  0  0
  138.8760  110.9020   39.2330 C   0  0  0  0  0  0  0  0  0  0  0  0
  140.1310  111.4890   39.8910 C   0  0  0  0  0  0  0  0  0  0  0  0
  140.4640  112.8520   39.4520 N   0  0  0  0  0  0  0  0  0  0  0  0
  139.5460  113.8740   39.9840 C   0  0  0  0  0  0  0  0  0  0  0  0
  140.2020  114.8220   40.9670 C   0  0  0  0  0  0  0  0  0  0  0  0
  139.5110  115.9480   41.4420 C   0  0  0  0  0  0  0  0  0  0  0  0
  140.1080  116.8150   42.3580 C   0  0  0  0  0  0  0  0  0  0  0  0
  141.4020  116.5630   42.8140 C   0  0  0  0  0  0  0  0  0  0  0  0
  142.0960  115.4450   42.3540 C   0  0  0  0  0  0  0  0  0  0  0  0
  141.5000  114.5780   41.4360 C   0  0  0  0  0  0  0  0  0  0  0  0
  140.5600  112.9130   37.9880 C   0  0  0  0  0  0  0  0  0  0  0  0
  139.3150  112.4000   37.2610 C   0  0  0  0  0  0  0  0  0  0  0  0
  1  2  1  0
  2  3  1  0
  3  4  1  0
  4  5  2  0
  5  6  1  0
  6  7  2  0
  7  8  1  0
  8  9  2  0
  9 10  1  0
 10 11  1  0
 11 12  1  0
 12 13  2  0
 12 14  1  0
 14 15  1  0
 15 16  1  0
 16 17  1  0
 17 18  1  0
 18 19  1  0
 19 20  1  0
 20 21  1  0
 21 22  1  0
 22 23  2  0
 23 24  1  0
 24 25  2  0
 25 26  1  0
 26 27  2  0
 20 28  1  0
 28 29  1  0
 10  2  2  0
 29 17  1  0
  9  4  1  0
 27 22  1  0
M  END
$$$$
