MAINKGNWZLMMRF-UHFFFAOYSA-N_6LXA_m6
     RDKit          3D

 41 44  0  0  0  0  0  0  0  0999 V2000
   10.8840   12.6210   -4.0980 C   0  0  0  0  0  0  0  0  0  0  0  0
   10.1600   11.7580   -5.0470 C   0  0  0  0  0  0  0  0  0  0  0  0
   10.6260   11.7170   -6.3300 O   0  0  0  0  0  0  0  0  0  0  0  0
    9.7650   10.8690   -6.9780 C   0  0  0  0  0  0  0  0  0  0  0  0
   10.0170   10.6300   -8.3970 C   0  0  0  0  0  0  0  0  0  0  0  0
   10.5910   11.6440   -9.1790 C   0  0  0  0  0  0  0  0  0  0  0  0
   10.8420   11.4480  -10.5420 C   0  0  0  0  0  0  0  0  0  0  0  0
   10.5000   10.2370  -11.1450 C   0  0  0  0  0  0  0  0  0  0  0  0
   10.7360    9.9400  -12.4700 O   0  0  0  0  0  0  0  0  0  0  0  0
   11.2300    8.6900  -12.7620 C   0  0  0  0  0  0  0  0  0  0  0  0
   10.3930    7.5810  -12.9010 C   0  0  0  0  0  0  0  0  0  0  0  0
   10.9460    6.3280  -13.1670 C   0  0  0  0  0  0  0  0  0  0  0  0
   12.3310    6.1850  -13.2750 C   0  0  0  0  0  0  0  0  0  0  0  0
   13.1650    7.2910  -13.1090 C   0  0  0  0  0  0  0  0  0  0  0  0
   12.6150    8.5470  -12.8440 C   0  0  0  0  0  0  0  0  0  0  0  0
    9.9450    9.2130  -10.3770 C   0  0  0  0  0  0  0  0  0  0  0  0
    9.7000    9.4100   -9.0130 C   0  0  0  0  0  0  0  0  0  0  0  0
    8.8090   10.3860   -6.2080 N   0  0  0  0  0  0  0  0  0  0  0  0
    9.0520   10.9410   -4.9730 C   0  0  0  0  0  0  0  0  0  0  0  0
    8.1720   10.6330   -3.8140 C   0  0  0  0  0  0  0  0  0  0  0  0
    6.7490   10.2860   -4.2450 C   0  0  0  0  0  0  0  0  0  0  0  0
    5.9350   10.1390   -3.0770 O   0  0  0  0  0  0  0  0  0  0  0  0
    5.2740    8.9510   -2.9260 C   0  0  0  0  0  0  0  0  0  0  0  0
    4.8490    8.3970   -1.7250 C   0  0  0  0  0  0  0  0  0  0  0  0
    4.1740    7.1730   -1.7190 C   0  0  0  0  0  0  0  0  0  0  0  0
    3.9110    6.4770   -2.9120 C   0  0  0  0  0  0  0  0  0  0  0  0
    3.1870    5.1480   -2.8260 C   0  0  0  0  0  0  0  0  0  0  0  0
    3.1420    4.5840   -1.4060 C   0  0  0  0  0  0  0  0  0  0  0  0
    4.4700    4.0300   -0.9690 C   0  0  0  0  0  0  0  0  0  0  0  0
    5.4450    3.8120   -1.6680 O   0  0  0  0  0  0  0  0  0  0  0  0
    4.5240    3.8250    0.3620 O   0  0  0  0  0  0  0  0  0  0  0  0
    4.3460    7.0320   -4.1340 C   0  0  0  0  0  0  0  0  0  0  0  0
    4.0740    6.3840   -5.4690 C   0  0  0  0  0  0  0  0  0  0  0  0
    5.0920    5.4190   -5.7860 N   0  0  0  0  0  0  0  0  0  0  0  0
    6.2660    5.7720   -6.3690 C   0  0  0  0  0  0  0  0  0  0  0  0
    6.5900    6.9110   -6.6700 O   0  0  0  0  0  0  0  0  0  0  0  0
    7.0160    4.6590   -6.5540 O   0  0  0  0  0  0  0  0  0  0  0  0
    8.3710    4.7210   -6.0730 C   0  0  0  0  0  0  0  0  0  0  0  0
    9.2790    4.7560   -7.2950 C   0  0  0  0  0  0  0  0  0  0  0  0
    8.6720    3.4970   -5.2170 C   0  0  0  0  0  0  0  0  0  0  0  0
    5.0130    8.2730   -4.1190 C   0  0  0  0  0  0  0  0  0  0  0  0
  1  2  1  0
  2  3  1  0
  3  4  1  0
  4  5  1  0
  5  6  2  0
  6  7  1  0
  7  8  2  0
  8  9  1  0
  9 10  1  0
 10 11  2  0
 11 12  1  0
 12 13  2  0
 13 14  1  0
 14 15  2  0
  8 16  1  0
 16 17  2  0
  4 18  2  0
 18 19  1  0
 19 20  1  0
 20 21  1  0
 21 22  1  0
 22 23  1  0
 23 24  2  0
 24 25  1  0
 25 26  2  0
 26 27  1  0
 27 28  1  0
 28 29  1  0
 29 30  2  0
 29 31  1  0
 26 32  1  0
 32 33  1  0
 33 34  1  0
 34 35  1  0
 35 36  2  0
 35 37  1  0
 37 38  1  0
 38 39  1  0
 38 40  1  0
 32 41  2  0
 19  2  2  0
 41 23  1  0
 17  5  1  0
 15 10  1  0
M  END
$$$$
