MAZZDWBGKGDHRC-DVECYGJZSA-N_6N7A_m1
     RDKit          3D

 43 47  0  0  0  0  0  0  0  0999 V2000
    7.0090  -19.1680   22.5570 C   0  0  0  0  0  0  0  0  0  0  0  0
    5.5840  -19.2210   22.5560 O   0  0  0  0  0  0  0  0  0  0  0  0
    4.9930  -18.1040   21.8570 C   0  0  0  0  0  0  0  0  0  0  0  0
    4.5070  -18.4670   20.4260 C   0  0  1  0  0  0  0  0  0  0  0  0
    4.2120  -19.9920   20.3570 C   0  0  0  0  0  0  0  0  0  0  0  0
    3.1120  -20.4280   20.6930 O   0  0  0  0  0  0  0  0  0  0  0  0
    5.2860  -20.7500   19.9290 N   0  0  0  0  0  0  0  0  0  0  0  0
    5.3890  -22.1480   19.8290 C   0  0  0  0  0  0  0  0  0  0  0  0
    5.4270  -22.8470   18.6170 C   0  0  0  0  0  0  0  0  0  0  0  0
    5.4960  -24.2400   18.5820 C   0  0  0  0  0  0  0  0  0  0  0  0
    5.5270  -24.9820   19.7640 C   0  0  0  0  0  0  0  0  0  0  0  0
    5.4990  -24.3120   21.0040 C   0  0  0  0  0  0  0  0  0  0  0  0
    5.5120  -24.7510   22.3680 C   0  0  0  0  0  0  0  0  0  0  0  0
    5.5920  -26.1080   22.8910 C   0  0  0  0  0  0  0  0  0  0  0  0
    6.7140  -26.3540   23.6050 N   0  0  0  0  0  0  0  0  0  0  0  0
    6.8650  -27.5700   24.1390 C   0  0  0  0  0  0  0  0  0  0  0  0
    8.0460  -27.7580   24.8470 N   0  0  0  0  0  0  0  0  0  0  0  0
    9.1440  -26.9450   25.1490 C   0  0  0  0  0  0  0  0  0  0  0  0
    9.3850  -25.7020   24.5520 C   0  0  0  0  0  0  0  0  0  0  0  0
   10.4970  -24.9260   24.9100 C   0  0  0  0  0  0  0  0  0  0  0  0
   11.3830  -25.3770   25.8830 C   0  0  0  0  0  0  0  0  0  0  0  0
   11.1500  -26.6090   26.4960 C   0  0  0  0  0  0  0  0  0  0  0  0
   12.2470  -27.2010   27.7410 S   0  0  0  0  0  0  0  0  0  0  0  0
   13.5070  -25.9620   27.8960 C   0  0  0  0  0  0  0  0  0  0  0  0
   11.4970  -27.2710   28.9790 O   0  0  0  0  0  0  0  0  0  0  0  0
   12.8940  -28.3870   27.2070 O   0  0  0  0  0  0  0  0  0  0  0  0
   10.0520  -27.3800   26.1320 C   0  0  0  0  0  0  0  0  0  0  0  0
    9.8260  -28.5620   26.7270 F   0  0  0  0  0  0  0  0  0  0  0  0
    5.9640  -28.5500   23.9940 N   0  0  0  0  0  0  0  0  0  0  0  0
    4.8670  -28.2760   23.2620 C   0  0  0  0  0  0  0  0  0  0  0  0
    4.6180  -27.0630   22.6590 C   0  0  0  0  0  0  0  0  0  0  0  0
    3.3790  -26.8480   21.8560 C   0  0  0  0  0  0  0  0  0  0  0  0
    5.5190  -23.6170   23.1570 C   0  0  0  0  0  0  0  0  0  0  0  0
    5.4640  -22.5250   22.3330 N   0  0  0  0  0  0  0  0  0  0  0  0
    5.4380  -22.9160   21.0090 C   0  0  0  0  0  0  0  0  0  0  0  0
    3.3720  -17.5940   19.9650 N   0  0  0  0  0  0  0  0  0  0  0  0
    2.2530  -17.5150   20.9380 C   0  0  0  0  0  0  0  0  0  0  0  0
    1.0870  -16.6210   20.4570 C   0  0  0  0  0  0  0  0  0  0  0  0
    0.5330  -17.0890   19.1800 N   0  0  0  0  0  0  0  0  0  0  0  0
   -0.5430  -16.2120   18.7250 C   0  0  0  0  0  0  0  0  0  0  0  0
    1.6150  -17.1560   18.1860 C   0  0  0  0  0  0  0  0  0  0  0  0
    2.8090  -18.0490   18.6530 C   0  0  1  0  0  0  0  0  0  0  0  0
    3.8440  -18.0560   17.5180 C   0  0  0  0  0  0  0  0  0  0  0  0
  1  2  1  0
  2  3  1  0
  4  3  1  1
  4  5  1  0
  5  6  2  0
  5  7  1  0
  7  8  1  0
  8  9  2  0
  9 10  1  0
 10 11  2  0
 11 12  1  0
 12 13  1  0
 13 14  1  0
 14 15  2  0
 15 16  1  0
 16 17  1  0
 17 18  1  0
 18 19  2  0
 19 20  1  0
 20 21  2  0
 21 22  1  0
 22 23  1  0
 23 24  1  0
 23 25  2  0
 23 26  2  0
 22 27  2  0
 27 28  1  0
 16 29  2  0
 29 30  1  0
 30 31  2  0
 31 32  1  0
 13 33  2  0
 33 34  1  0
 34 35  1  0
  4 36  1  0
 36 37  1  0
 37 38  1  0
 38 39  1  0
 39 40  1  0
 39 41  1  0
 41 42  1  0
 42 43  1  6
 35  8  1  0
 42 36  1  0
 35 12  2  0
 31 14  1  0
 27 18  1  0
M  END
$$$$
