MBYLQCWDOYEQRA-PKOBYXMFSA-N_4BDS_m7
     RDKit          3D

 24 27  0  0  0  0  0  0  0  0999 V2000
  137.8500  115.9920   41.4280 C   0  0  0  0  0  0  0  0  0  0  0  0
  139.3140  115.8470   41.7490 C   0  0  0  0  0  0  0  0  0  0  0  0
  140.0060  116.9760   42.2240 C   0  0  0  0  0  0  0  0  0  0  0  0
  141.3600  116.9040   42.5380 C   0  0  0  0  0  0  0  0  0  0  0  0
  142.0410  115.7020   42.3810 C   0  0  0  0  0  0  0  0  0  0  0  0
  141.3670  114.5720   41.9110 C   0  0  0  0  0  0  0  0  0  0  0  0
  140.0050  114.6250   41.5900 C   0  0  0  0  0  0  0  0  0  0  0  0
  139.3000  113.5020   41.1140 N   0  0  0  0  0  0  0  0  0  0  0  0
  139.2680  112.9760   39.8480 C   0  0  0  0  0  0  0  0  0  0  0  0
  139.8540  113.3810   38.8560 O   0  0  0  0  0  0  0  0  0  0  0  0
  138.4280  111.8650   39.8730 O   0  0  0  0  0  0  0  0  0  0  0  0
  137.3580  111.8600   38.9640 C   0  0  0  0  0  0  0  0  0  0  0  0
  137.4450  110.9890   37.8810 C   0  0  0  0  0  0  0  0  0  0  0  0
  136.4340  110.9910   36.9230 C   0  0  0  0  0  0  0  0  0  0  0  0
  135.3580  111.8680   37.0560 C   0  0  0  0  0  0  0  0  0  0  0  0
  135.2680  112.7560   38.1460 C   0  0  0  0  0  0  0  0  0  0  0  0
  136.2950  112.7570   39.0970 C   0  0  0  0  0  0  0  0  0  0  0  0
  134.0570  113.6820   38.2010 C   0  0  1  0  0  0  0  0  0  0  0  0
  133.7600  114.2930   39.5670 C   0  0  0  0  0  0  0  0  0  0  0  0
  134.2090  114.7430   37.1000 C   0  0  0  0  0  0  0  0  0  0  0  0
  133.8150  114.1050   35.8660 O   0  0  0  0  0  0  0  0  0  0  0  0
  133.3500  112.7860   36.2140 C   0  0  2  0  0  0  0  0  0  0  0  0
  132.8760  112.8920   37.6530 C   0  0  0  0  0  0  0  0  0  0  0  0
  134.3940  111.8090   36.0780 O   0  0  0  0  0  0  0  0  0  0  0  0
  1  2  1  0
  2  3  2  0
  3  4  1  0
  4  5  2  0
  5  6  1  0
  6  7  2  0
  7  8  1  0
  8  9  1  0
  9 10  2  0
  9 11  1  0
 11 12  1  0
 12 13  2  0
 13 14  1  0
 14 15  2  0
 15 16  1  0
 16 17  2  0
 16 18  1  0
 18 19  1  1
 18 20  1  0
 20 21  1  0
 22 21  1  1
 22 23  1  0
 22 24  1  0
  7  2  1  0
 17 12  1  0
 23 18  1  0
 24 15  1  0
M  END
$$$$
