MCHYSTQTMONBPK-SNAWJCMRSA-N_6N7A_m1
     RDKit          3D

 34 37  0  0  0  0  0  0  0  0999 V2000
    1.9910  -18.4280   21.4970 C   0  0  0  0  0  0  0  0  0  0  0  0
    3.2110  -18.1420   22.2590 N   0  0  0  0  0  0  0  0  0  0  0  0
    3.5870  -19.3190   23.0440 C   0  0  0  0  0  0  0  0  0  0  0  0
    4.2910  -17.7240   21.3370 C   0  0  0  0  0  0  0  0  0  0  0  0
    3.8480  -17.5850   19.8620 C   0  0  0  0  0  0  0  0  0  0  0  0
    4.3850  -18.6510   19.0020 N   0  0  0  0  0  0  0  0  0  0  0  0
    4.2470  -18.5170   17.5590 C   0  0  0  0  0  0  0  0  0  0  0  0
    5.4540  -19.3980   19.4910 C   0  0  0  0  0  0  0  0  0  0  0  0
    6.7510  -18.8730   19.4740 C   0  0  0  0  0  0  0  0  0  0  0  0
    7.8420  -19.6040   19.9560 C   0  0  0  0  0  0  0  0  0  0  0  0
    7.6850  -20.8990   20.4640 C   0  0  0  0  0  0  0  0  0  0  0  0
    6.3910  -21.4230   20.4940 C   0  0  0  0  0  0  0  0  0  0  0  0
    5.2740  -20.6940   20.0120 C   0  0  0  0  0  0  0  0  0  0  0  0
    3.9280  -21.3880   19.9620 C   0  0  0  0  0  0  0  0  0  0  0  0
    3.7990  -22.4520   20.9080 O   0  0  0  0  0  0  0  0  0  0  0  0
    3.5350  -23.7060   20.2930 C   0  0  0  0  0  0  0  0  0  0  0  0
    3.9680  -24.8320   21.1840 C   0  0  0  0  0  0  0  0  0  0  0  0
    3.3080  -25.9900   21.3580 C   0  0  0  0  0  0  0  0  0  0  0  0
    3.7740  -27.1090   22.2330 C   0  0  0  0  0  0  0  0  0  0  0  0
    4.9150  -26.7050   22.9800 O   0  0  0  0  0  0  0  0  0  0  0  0
    5.9630  -27.6720   22.9870 C   0  0  0  0  0  0  0  0  0  0  0  0
    7.1680  -27.0930   23.6850 C   0  0  0  0  0  0  0  0  0  0  0  0
    7.7920  -27.8020   24.7170 C   0  0  0  0  0  0  0  0  0  0  0  0
    8.8940  -27.2620   25.3750 C   0  0  0  0  0  0  0  0  0  0  0  0
    9.3730  -26.0010   25.0160 C   0  0  0  0  0  0  0  0  0  0  0  0
    8.7670  -25.2560   23.9900 C   0  0  0  0  0  0  0  0  0  0  0  0
    7.6710  -25.8330   23.3240 C   0  0  0  0  0  0  0  0  0  0  0  0
    9.2380  -23.9050   23.6370 C   0  0  0  0  0  0  0  0  0  0  0  0
   10.0440  -23.1740   24.4840 C   0  0  0  0  0  0  0  0  0  0  0  0
   10.3800  -21.9160   24.0600 C   0  0  0  0  0  0  0  0  0  0  0  0
    9.9680  -21.3970   22.8920 N   0  0  0  0  0  0  0  0  0  0  0  0
    9.1980  -22.1740   22.1090 C   0  0  0  0  0  0  0  0  0  0  0  0
    8.8090  -23.4080   22.4540 N   0  0  0  0  0  0  0  0  0  0  0  0
    8.8230  -21.5750   20.9110 N   0  0  0  0  0  0  0  0  0  0  0  0
  1  2  1  0
  2  3  1  0
  2  4  1  0
  4  5  1  0
  5  6  1  0
  6  7  1  0
  6  8  1  0
  8  9  2  0
  9 10  1  0
 10 11  2  0
 11 12  1  0
 12 13  2  0
 13 14  1  0
 14 15  1  0
 15 16  1  0
 16 17  1  0
 17 18  2  0
 18 19  1  0
 19 20  1  0
 20 21  1  0
 21 22  1  0
 22 23  2  0
 23 24  1  0
 24 25  2  0
 25 26  1  0
 26 27  2  0
 26 28  1  0
 28 29  2  0
 29 30  1  0
 30 31  2  0
 31 32  1  0
 32 33  2  0
 32 34  1  0
 13  8  1  0
 27 22  1  0
 33 28  1  0
 34 11  1  0
M  END
$$$$
