MFSFKJAYNZMHEN-QWAKEFERSA-N_4BDS_m8
     RDKit          3D

 26 29  0  0  0  0  0  0  0  0999 V2000
  135.2760  106.7450   38.2970 C   0  0  0  0  0  0  0  0  0  0  0  0
  135.7250  107.3420   39.5230 N   0  0  0  0  0  0  0  0  0  0  0  0
  137.0370  107.3130   39.9070 C   0  0  0  0  0  0  0  0  0  0  0  0
  137.9330  106.7790   39.2660 O   0  0  0  0  0  0  0  0  0  0  0  0
  137.1720  107.9810   41.1130 O   0  0  0  0  0  0  0  0  0  0  0  0
  137.1800  109.3800   41.0330 C   0  0  0  0  0  0  0  0  0  0  0  0
  138.1900  109.9780   40.2740 C   0  0  0  0  0  0  0  0  0  0  0  0
  138.2130  111.3680   40.1130 C   0  0  0  0  0  0  0  0  0  0  0  0
  137.2210  112.1400   40.7000 C   0  0  0  0  0  0  0  0  0  0  0  0
  136.2150  111.5130   41.4450 C   0  0  0  0  0  0  0  0  0  0  0  0
  136.1660  110.1360   41.6150 C   0  0  0  0  0  0  0  0  0  0  0  0
  135.2800  112.5520   41.9940 C   0  0  2  0  0  0  0  0  0  0  0  0
  135.2900  112.5700   43.5270 C   0  0  0  0  0  0  0  0  0  0  0  0
  133.8640  112.4610   41.4290 C   0  0  0  0  0  0  0  0  0  0  0  0
  133.4930  113.9170   41.2210 C   0  0  0  0  0  0  0  0  0  0  0  0
  134.7150  114.4980   40.6700 N   0  0  0  0  0  0  0  0  0  0  0  0
  134.7040  115.9500   40.7480 C   0  0  0  0  0  0  0  0  0  0  0  0
  135.8550  113.8940   41.3920 C   0  0  2  0  0  0  0  0  0  0  0  0
  137.0630  113.5080   40.6600 N   0  0  0  0  0  0  0  0  0  0  0  0
  137.9490  114.4740   40.0560 C   0  0  0  0  0  0  0  0  0  0  0  0
  138.9640  115.0060   41.0460 C   0  0  0  0  0  0  0  0  0  0  0  0
  140.0980  114.2540   41.3910 C   0  0  0  0  0  0  0  0  0  0  0  0
  141.0400  114.7560   42.2910 C   0  0  0  0  0  0  0  0  0  0  0  0
  140.8660  116.0200   42.8490 C   0  0  0  0  0  0  0  0  0  0  0  0
  139.7510  116.7830   42.5090 C   0  0  0  0  0  0  0  0  0  0  0  0
  138.8080  116.2810   41.6090 C   0  0  0  0  0  0  0  0  0  0  0  0
  1  2  1  0
  2  3  1  0
  3  4  2  0
  3  5  1  0
  5  6  1  0
  6  7  2  0
  7  8  1  0
  8  9  2  0
  9 10  1  0
 10 11  2  0
 10 12  1  0
 12 13  1  1
 12 14  1  0
 14 15  1  0
 15 16  1  0
 16 17  1  0
 18 16  1  6
 18 19  1  0
 19 20  1  0
 20 21  1  0
 21 22  2  0
 22 23  1  0
 23 24  2  0
 24 25  1  0
 25 26  2  0
 11  6  1  0
 18 12  1  0
 26 21  1  0
 19  9  1  0
M  END
$$$$
