MHHFHCHCZMIUDH-UHFFFAOYSA-N_3LXP_m7
     RDKit          3D

 31 35  0  0  0  0  0  0  0  0999 V2000
   -6.2240   25.9120  -33.6000 C   0  0  0  0  0  0  0  0  0  0  0  0
   -6.0030   24.4210  -33.4170 C   0  0  0  0  0  0  0  0  0  0  0  0
   -5.4480   24.1230  -32.1150 N   0  0  0  0  0  0  0  0  0  0  0  0
   -4.8840   22.9010  -31.8270 C   0  0  0  0  0  0  0  0  0  0  0  0
   -4.7540   21.9880  -32.6310 O   0  0  0  0  0  0  0  0  0  0  0  0
   -4.3680   22.7570  -30.4440 C   0  0  0  0  0  0  0  0  0  0  0  0
   -4.8400   21.6680  -29.7060 C   0  0  0  0  0  0  0  0  0  0  0  0
   -4.3690   21.4430  -28.4100 C   0  0  0  0  0  0  0  0  0  0  0  0
   -3.4250   22.2960  -27.8190 C   0  0  0  0  0  0  0  0  0  0  0  0
   -2.9790   22.0020  -26.5270 N   0  0  0  0  0  0  0  0  0  0  0  0
   -1.8030   22.2460  -25.8240 C   0  0  0  0  0  0  0  0  0  0  0  0
   -1.2280   21.3170  -25.0540 N   0  0  0  0  0  0  0  0  0  0  0  0
   -0.1030   21.6740  -24.4200 C   0  0  0  0  0  0  0  0  0  0  0  0
    0.4660   22.9200  -24.5260 C   0  0  0  0  0  0  0  0  0  0  0  0
   -0.1750   23.8360  -25.3340 C   0  0  0  0  0  0  0  0  0  0  0  0
    0.3080   25.1190  -25.5210 N   0  0  0  0  0  0  0  0  0  0  0  0
   -0.2570   26.0600  -26.5000 C   0  0  0  0  0  0  0  0  0  0  0  0
    0.4540   27.4250  -26.4680 C   0  0  1  0  0  0  0  0  0  0  0  0
    0.7080   27.9410  -25.0250 C   0  0  0  0  0  0  0  0  0  0  0  0
    1.9210   26.9710  -25.0530 C   0  0  1  0  0  0  0  0  0  0  0  0
    1.5370   25.5050  -24.7930 C   0  0  0  0  0  0  0  0  0  0  0  0
    1.9000   27.2490  -26.4870 N   0  0  0  0  0  0  0  0  0  0  0  0
    2.8460   27.0720  -27.4420 C   0  0  0  0  0  0  0  0  0  0  0  0
    3.2630   25.9780  -27.8000 O   0  0  0  0  0  0  0  0  0  0  0  0
    3.3550   28.3170  -28.0750 C   0  0  0  0  0  0  0  0  0  0  0  0
    2.6710   28.8640  -29.3070 C   0  0  0  0  0  0  0  0  0  0  0  0
    4.0460   28.2760  -29.4180 C   0  0  0  0  0  0  0  0  0  0  0  0
   -1.3050   23.4860  -25.9760 N   0  0  0  0  0  0  0  0  0  0  0  0
   -2.9810   23.3940  -28.5680 C   0  0  0  0  0  0  0  0  0  0  0  0
   -3.4550   23.6560  -29.8700 C   0  0  0  0  0  0  0  0  0  0  0  0
   -2.9610   24.8810  -30.5870 C   0  0  0  0  0  0  0  0  0  0  0  0
  1  2  1  0
  2  3  1  0
  3  4  1  0
  4  5  2  0
  4  6  1  0
  6  7  2  0
  7  8  1  0
  8  9  2  0
  9 10  1  0
 10 11  1  0
 11 12  2  0
 12 13  1  0
 13 14  2  0
 14 15  1  0
 15 16  1  0
 16 17  1  0
 18 17  1  1
 18 19  1  0
 20 19  1  1
 20 21  1  0
 20 22  1  0
 22 23  1  0
 23 24  2  0
 23 25  1  0
 25 26  1  0
 26 27  1  0
 15 28  2  0
  9 29  1  0
 29 30  2  0
 30 31  1  0
 30  6  1  0
 28 11  1  0
 21 16  1  0
 27 25  1  0
 22 18  1  0
M  END
$$$$
