MJWHYVMTGWQCDN-UHFFFAOYSA-N_6N7A_m4
     RDKit          3D

 40 45  0  0  0  0  0  0  0  0999 V2000
   10.7300  -19.9160   26.6680 C   0  0  0  0  0  0  0  0  0  0  0  0
   12.0730  -20.4660   26.8400 N   0  0  0  0  0  0  0  0  0  0  0  0
   12.4240  -21.4290   25.7910 C   0  0  0  0  0  0  0  0  0  0  0  0
   11.7110  -22.7770   25.9180 C   0  0  0  0  0  0  0  0  0  0  0  0
   11.9390  -23.3770   27.3110 C   0  0  0  0  0  0  0  0  0  0  0  0
   11.2550  -24.6710   27.5090 N   0  0  0  0  0  0  0  0  0  0  0  0
   10.4830  -24.8740   28.7320 C   0  0  0  0  0  0  0  0  0  0  0  0
   11.4860  -25.6820   26.5690 C   0  0  0  0  0  0  0  0  0  0  0  0
   12.6120  -26.0390   26.2230 O   0  0  0  0  0  0  0  0  0  0  0  0
   10.3320  -26.3590   25.9320 C   0  0  0  0  0  0  0  0  0  0  0  0
    9.5280  -25.6400   25.0480 C   0  0  0  0  0  0  0  0  0  0  0  0
    8.4220  -26.2550   24.4470 C   0  0  0  0  0  0  0  0  0  0  0  0
    8.0930  -27.5880   24.7250 C   0  0  0  0  0  0  0  0  0  0  0  0
    7.0030  -28.2600   24.1440 N   0  0  0  0  0  0  0  0  0  0  0  0
    5.9320  -27.8310   23.4530 C   0  0  0  0  0  0  0  0  0  0  0  0
    6.0490  -26.5890   22.8970 N   0  0  0  0  0  0  0  0  0  0  0  0
    4.9000  -26.4120   22.2780 C   0  0  0  0  0  0  0  0  0  0  0  0
    4.3700  -25.3130   21.5050 C   0  0  0  0  0  0  0  0  0  0  0  0
    5.1090  -24.0640   21.2760 C   0  0  0  0  0  0  0  0  0  0  0  0
    5.2150  -23.1090   22.2190 C   0  0  0  0  0  0  0  0  0  0  0  0
    5.9350  -21.8010   22.0630 C   0  0  0  0  0  0  0  0  0  0  0  0
    6.5870  -21.6770   20.7630 N   0  0  0  0  0  0  0  0  0  0  0  0
    7.6360  -20.7690   20.6640 C   0  0  0  0  0  0  0  0  0  0  0  0
    7.4500  -19.6180   20.2620 O   0  0  0  0  0  0  0  0  0  0  0  0
    9.0340  -21.2350   21.0880 C   0  0  0  0  0  0  0  0  0  0  0  0
    9.0040  -22.7040   21.5480 C   0  0  0  0  0  0  0  0  0  0  0  0
    9.5520  -22.7200   22.9710 C   0  0  0  0  0  0  0  0  0  0  0  0
    9.2810  -21.3220   23.4950 C   0  0  0  0  0  0  0  0  0  0  0  0
    9.5830  -20.4470   22.2880 C   0  0  0  0  0  0  0  0  0  0  0  0
    5.9240  -22.3380   19.6390 C   0  0  0  0  0  0  0  0  0  0  0  0
    5.7160  -23.8290   19.9130 C   0  0  0  0  0  0  0  0  0  0  0  0
    3.1210  -25.4590   20.9960 C   0  0  0  0  0  0  0  0  0  0  0  0
    2.3200  -26.6570   21.1900 C   0  0  0  0  0  0  0  0  0  0  0  0
    2.8280  -27.6610   21.9200 C   0  0  0  0  0  0  0  0  0  0  0  0
    4.1030  -27.5420   22.4620 N   0  0  0  0  0  0  0  0  0  0  0  0
    4.7670  -28.4360   23.2230 N   0  0  0  0  0  0  0  0  0  0  0  0
    8.8960  -28.2830   25.6480 C   0  0  0  0  0  0  0  0  0  0  0  0
   10.0000  -27.6750   26.2570 C   0  0  0  0  0  0  0  0  0  0  0  0
   11.5710  -22.3710   28.4080 C   0  0  0  0  0  0  0  0  0  0  0  0
   12.2790  -21.0350   28.1790 C   0  0  0  0  0  0  0  0  0  0  0  0
  1  2  1  0
  2  3  1  0
  3  4  1  0
  4  5  1  0
  5  6  1  0
  6  7  1  0
  6  8  1  0
  8  9  2  0
  8 10  1  0
 10 11  2  0
 11 12  1  0
 12 13  2  0
 13 14  1  0
 14 15  1  0
 15 16  1  0
 16 17  2  0
 17 18  1  0
 18 19  1  0
 19 20  2  0
 20 21  1  0
 21 22  1  0
 22 23  1  0
 23 24  2  0
 23 25  1  0
 25 26  1  0
 26 27  1  0
 27 28  1  0
 28 29  1  0
 22 30  1  0
 30 31  1  0
 18 32  2  0
 32 33  1  0
 33 34  2  0
 34 35  1  0
 35 36  1  0
 13 37  1  0
 37 38  2  0
  5 39  1  0
 39 40  1  0
 40  2  1  0
 38 10  1  0
 36 15  2  0
 35 17  1  0
 31 19  1  0
 29 25  1  0
M  END
$$$$
