MJWHYVMTGWQCDN-UHFFFAOYSA-N_6N7A_m8
     RDKit          3D

 40 45  0  0  0  0  0  0  0  0999 V2000
    0.6270  -16.5810   19.5910 C   0  0  0  0  0  0  0  0  0  0  0  0
    1.4320  -17.7980   19.5020 N   0  0  0  0  0  0  0  0  0  0  0  0
    2.0990  -18.1240   20.7680 C   0  0  0  0  0  0  0  0  0  0  0  0
    3.2780  -17.2100   21.1040 C   0  0  0  0  0  0  0  0  0  0  0  0
    4.2830  -17.1800   19.9450 C   0  0  0  0  0  0  0  0  0  0  0  0
    5.4380  -16.2940   20.1970 N   0  0  0  0  0  0  0  0  0  0  0  0
    5.4210  -14.9480   19.6310 C   0  0  0  0  0  0  0  0  0  0  0  0
    6.5450  -16.8350   20.8590 C   0  0  0  0  0  0  0  0  0  0  0  0
    7.3530  -16.1560   21.4930 O   0  0  0  0  0  0  0  0  0  0  0  0
    6.7880  -18.2960   20.7930 C   0  0  0  0  0  0  0  0  0  0  0  0
    7.2100  -18.8590   19.5890 C   0  0  0  0  0  0  0  0  0  0  0  0
    7.4290  -20.2390   19.5000 C   0  0  0  0  0  0  0  0  0  0  0  0
    7.2220  -21.0800   20.6000 C   0  0  0  0  0  0  0  0  0  0  0  0
    7.4360  -22.4700   20.5720 N   0  0  0  0  0  0  0  0  0  0  0  0
    6.7100  -23.5120   21.0140 C   0  0  0  0  0  0  0  0  0  0  0  0
    7.3000  -24.2710   21.9850 N   0  0  0  0  0  0  0  0  0  0  0  0
    6.4010  -25.1970   22.2500 C   0  0  0  0  0  0  0  0  0  0  0  0
    6.3950  -26.3120   23.1670 C   0  0  0  0  0  0  0  0  0  0  0  0
    7.5320  -26.6410   24.0380 C   0  0  0  0  0  0  0  0  0  0  0  0
    7.6560  -27.8410   24.6350 C   0  0  0  0  0  0  0  0  0  0  0  0
    8.7730  -28.2510   25.5490 C   0  0  0  0  0  0  0  0  0  0  0  0
    9.7870  -27.2110   25.6910 N   0  0  0  0  0  0  0  0  0  0  0  0
   11.0520  -27.6110   26.1060 C   0  0  0  0  0  0  0  0  0  0  0  0
   11.1980  -28.4890   26.9600 O   0  0  0  0  0  0  0  0  0  0  0  0
   12.2690  -26.9400   25.4580 C   0  0  0  0  0  0  0  0  0  0  0  0
   13.4090  -27.9550   25.2550 C   0  0  0  0  0  0  0  0  0  0  0  0
   14.6210  -27.3910   25.9890 C   0  0  0  0  0  0  0  0  0  0  0  0
   14.0300  -26.4900   27.0570 C   0  0  0  0  0  0  0  0  0  0  0  0
   12.8680  -25.8280   26.3320 C   0  0  0  0  0  0  0  0  0  0  0  0
    9.3120  -25.8290   25.6170 C   0  0  0  0  0  0  0  0  0  0  0  0
    8.5590  -25.5680   24.3110 C   0  0  0  0  0  0  0  0  0  0  0  0
    5.2830  -27.0890   23.1900 C   0  0  0  0  0  0  0  0  0  0  0  0
    4.1230  -26.8400   22.3490 C   0  0  0  0  0  0  0  0  0  0  0  0
    4.1550  -25.8040   21.4980 C   0  0  0  0  0  0  0  0  0  0  0  0
    5.2820  -24.9900   21.4440 N   0  0  0  0  0  0  0  0  0  0  0  0
    5.4950  -23.9200   20.6510 N   0  0  0  0  0  0  0  0  0  0  0  0
    6.7600  -20.4960   21.7940 C   0  0  0  0  0  0  0  0  0  0  0  0
    6.5330  -19.1190   21.8920 C   0  0  0  0  0  0  0  0  0  0  0  0
    3.5860  -16.8390   18.6230 C   0  0  0  0  0  0  0  0  0  0  0  0
    2.3880  -17.7590   18.3880 C   0  0  0  0  0  0  0  0  0  0  0  0
  1  2  1  0
  2  3  1  0
  3  4  1  0
  4  5  1  0
  5  6  1  0
  6  7  1  0
  6  8  1  0
  8  9  2  0
  8 10  1  0
 10 11  2  0
 11 12  1  0
 12 13  2  0
 13 14  1  0
 14 15  1  0
 15 16  1  0
 16 17  2  0
 17 18  1  0
 18 19  1  0
 19 20  2  0
 20 21  1  0
 21 22  1  0
 22 23  1  0
 23 24  2  0
 23 25  1  0
 25 26  1  0
 26 27  1  0
 27 28  1  0
 28 29  1  0
 22 30  1  0
 30 31  1  0
 18 32  2  0
 32 33  1  0
 33 34  2  0
 34 35  1  0
 35 36  1  0
 13 37  1  0
 37 38  2  0
  5 39  1  0
 39 40  1  0
 40  2  1  0
 38 10  1  0
 36 15  2  0
 35 17  1  0
 31 19  1  0
 29 25  1  0
M  END
$$$$
