MPSJBYFGZHSLRS-UHFFFAOYSA-N_4UDW_m6
     RDKit          3D

 23 25  0  0  0  0  0  0  0  0999 V2000
  132.4380  -16.1210  163.4200 C   0  0  0  0  0  0  0  0  0  0  0  0
  130.9440  -15.8440  163.3800 C   0  0  0  0  0  0  0  0  0  0  0  0
  130.6080  -14.7450  162.3960 C   0  0  0  0  0  0  0  0  0  0  0  0
  131.3850  -14.2450  161.5880 O   0  0  0  0  0  0  0  0  0  0  0  0
  129.2800  -14.3010  162.4570 N   0  0  0  0  0  0  0  0  0  0  0  0
  128.6460  -14.1170  163.6430 N   0  0  0  0  0  0  0  0  0  0  0  0
  127.4270  -13.6970  163.2690 C   0  0  0  0  0  0  0  0  0  0  0  0
  126.3430  -13.3560  164.2030 C   0  0  0  0  0  0  0  0  0  0  0  0
  125.3860  -14.3110  164.5460 C   0  0  0  0  0  0  0  0  0  0  0  0
  124.3710  -13.9590  165.4330 C   0  0  0  0  0  0  0  0  0  0  0  0
  124.3370  -12.6710  165.9510 C   0  0  0  0  0  0  0  0  0  0  0  0
  125.3240  -11.7810  165.5620 C   0  0  0  0  0  0  0  0  0  0  0  0
  126.3190  -12.0920  164.7040 N   0  0  0  0  0  0  0  0  0  0  0  0
  127.2650  -13.6090  161.9020 N   0  0  0  0  0  0  0  0  0  0  0  0
  128.4210  -13.9860  161.4110 C   0  0  0  0  0  0  0  0  0  0  0  0
  128.7740  -14.0720  160.1120 N   0  0  0  0  0  0  0  0  0  0  0  0
  128.0170  -14.8900  159.1940 C   0  0  0  0  0  0  0  0  0  0  0  0
  128.3330  -14.4810  157.7760 C   0  0  0  0  0  0  0  0  0  0  0  0
  129.3900  -13.6000  157.5080 C   0  0  0  0  0  0  0  0  0  0  0  0
  129.6670  -13.2030  156.1990 C   0  0  0  0  0  0  0  0  0  0  0  0
  128.8840  -13.6750  155.1470 C   0  0  0  0  0  0  0  0  0  0  0  0
  127.8210  -14.5410  155.4030 C   0  0  0  0  0  0  0  0  0  0  0  0
  127.5440  -14.9390  156.7110 C   0  0  0  0  0  0  0  0  0  0  0  0
  1  2  1  0
  2  3  1  0
  3  4  2  0
  3  5  1  0
  5  6  1  0
  6  7  2  0
  7  8  1  0
  8  9  2  0
  9 10  1  0
 10 11  2  0
 11 12  1  0
 12 13  2  0
  7 14  1  0
 14 15  2  0
 15 16  1  0
 16 17  1  0
 17 18  1  0
 18 19  2  0
 19 20  1  0
 20 21  2  0
 21 22  1  0
 22 23  2  0
 15  5  1  0
 23 18  1  0
 13  8  1  0
M  END
$$$$
