MPSJBYFGZHSLRS-UHFFFAOYSA-N_2JKH_m5
     RDKit          3D

 23 25  0  0  0  0  0  0  0  0999 V2000
   -4.1680   14.8860   25.9480 C   0  0  0  0  0  0  0  0  0  0  0  0
   -4.3200   13.4760   25.4000 C   0  0  0  0  0  0  0  0  0  0  0  0
   -3.2270   13.1410   24.4110 C   0  0  0  0  0  0  0  0  0  0  0  0
   -2.9980   13.7420   23.3650 O   0  0  0  0  0  0  0  0  0  0  0  0
   -2.4380   12.0400   24.7710 N   0  0  0  0  0  0  0  0  0  0  0  0
   -2.8100   11.1940   25.7650 N   0  0  0  0  0  0  0  0  0  0  0  0
   -1.8070   10.3020   25.7900 C   0  0  0  0  0  0  0  0  0  0  0  0
   -1.7350    9.1590   26.7130 C   0  0  0  0  0  0  0  0  0  0  0  0
   -0.6000    8.3500   26.7420 C   0  0  0  0  0  0  0  0  0  0  0  0
   -0.5600    7.2750   27.6260 C   0  0  0  0  0  0  0  0  0  0  0  0
   -1.6490    7.0350   28.4550 C   0  0  0  0  0  0  0  0  0  0  0  0
   -2.7390    7.8850   28.3670 C   0  0  0  0  0  0  0  0  0  0  0  0
   -2.8070    8.9340   27.5200 N   0  0  0  0  0  0  0  0  0  0  0  0
   -0.8210   10.5480   24.8570 N   0  0  0  0  0  0  0  0  0  0  0  0
   -1.2250   11.6280   24.2320 C   0  0  0  0  0  0  0  0  0  0  0  0
   -0.6040   12.2750   23.2240 N   0  0  0  0  0  0  0  0  0  0  0  0
   -0.2490   11.5800   22.0090 C   0  0  0  0  0  0  0  0  0  0  0  0
   -1.4640   11.4690   21.1200 C   0  0  0  0  0  0  0  0  0  0  0  0
   -1.8180   12.5220   20.2640 C   0  0  0  0  0  0  0  0  0  0  0  0
   -2.9550   12.4290   19.4590 C   0  0  0  0  0  0  0  0  0  0  0  0
   -3.7530   11.2870   19.5090 C   0  0  0  0  0  0  0  0  0  0  0  0
   -3.4180   10.2400   20.3670 C   0  0  0  0  0  0  0  0  0  0  0  0
   -2.2820   10.3310   21.1700 C   0  0  0  0  0  0  0  0  0  0  0  0
  1  2  1  0
  2  3  1  0
  3  4  2  0
  3  5  1  0
  5  6  1  0
  6  7  2  0
  7  8  1  0
  8  9  2  0
  9 10  1  0
 10 11  2  0
 11 12  1  0
 12 13  2  0
  7 14  1  0
 14 15  2  0
 15 16  1  0
 16 17  1  0
 17 18  1  0
 18 19  2  0
 19 20  1  0
 20 21  2  0
 21 22  1  0
 22 23  2  0
 15  5  1  0
 23 18  1  0
 13  8  1  0
M  END
$$$$
