MRPBGBKPCPJUTC-UHFFFAOYSA-N_4BDS_m8
     RDKit          3D

 38 42  0  0  0  0  0  0  0  0999 V2000
  141.5320  116.1320   42.4690 C   0  0  0  0  0  0  0  0  0  0  0  0
  140.4210  115.2530   42.3800 O   0  0  0  0  0  0  0  0  0  0  0  0
  140.2540  114.5550   41.2090 C   0  0  0  0  0  0  0  0  0  0  0  0
  141.2070  113.6880   40.6630 C   0  0  0  0  0  0  0  0  0  0  0  0
  140.9490  113.0130   39.4670 C   0  0  0  0  0  0  0  0  0  0  0  0
  139.7370  113.1970   38.7930 C   0  0  0  0  0  0  0  0  0  0  0  0
  139.4490  112.4550   37.5050 C   0  0  0  0  0  0  0  0  0  0  0  0
  138.2020  111.6650   37.5500 N   0  0  0  0  0  0  0  0  0  0  0  0
  138.1170  110.8800   38.7930 C   0  0  0  0  0  0  0  0  0  0  0  0
  136.8670  110.0020   38.7940 C   0  0  0  0  0  0  0  0  0  0  0  0
  135.5800  110.8100   38.6050 C   0  0  0  0  0  0  0  0  0  0  0  0
  135.1460  111.4640   39.8890 C   0  0  0  0  0  0  0  0  0  0  0  0
  135.7590  111.0500   41.0330 O   0  0  0  0  0  0  0  0  0  0  0  0
  135.2090  111.7370   42.0640 C   0  0  0  0  0  0  0  0  0  0  0  0
  135.5590  111.5820   43.4040 C   0  0  0  0  0  0  0  0  0  0  0  0
  134.8590  112.3630   44.3280 C   0  0  0  0  0  0  0  0  0  0  0  0
  133.8590  113.2430   43.9130 C   0  0  0  0  0  0  0  0  0  0  0  0
  133.5320  113.3760   42.5550 C   0  0  0  0  0  0  0  0  0  0  0  0
  134.2350  112.6120   41.6010 C   0  0  0  0  0  0  0  0  0  0  0  0
  134.2130  112.4530   40.1750 C   0  0  0  0  0  0  0  0  0  0  0  0
  133.3820  113.1110   39.1770 C   0  0  0  0  0  0  0  0  0  0  0  0
  132.4730  112.5290   38.5930 O   0  0  0  0  0  0  0  0  0  0  0  0
  133.6360  114.5340   38.8400 C   0  0  0  0  0  0  0  0  0  0  0  0
  133.5500  115.5400   39.8060 C   0  0  0  0  0  0  0  0  0  0  0  0
  133.8030  116.8680   39.4540 C   0  0  0  0  0  0  0  0  0  0  0  0
  134.1550  117.1970   38.1390 C   0  0  0  0  0  0  0  0  0  0  0  0
  134.4140  118.4730   37.7030 O   0  0  0  0  0  0  0  0  0  0  0  0
  134.5510  119.4930   38.6830 C   0  0  0  0  0  0  0  0  0  0  0  0
  134.2690  116.1780   37.1700 C   0  0  0  0  0  0  0  0  0  0  0  0
  134.6230  116.5840   35.9070 O   0  0  0  0  0  0  0  0  0  0  0  0
  133.6170  117.1860   35.1040 C   0  0  0  0  0  0  0  0  0  0  0  0
  134.0130  114.8500   37.5280 C   0  0  0  0  0  0  0  0  0  0  0  0
  135.7220  111.7890   37.4320 C   0  0  0  0  0  0  0  0  0  0  0  0
  137.0420  112.5630   37.4360 C   0  0  0  0  0  0  0  0  0  0  0  0
  138.7790  114.0660   39.3440 C   0  0  0  0  0  0  0  0  0  0  0  0
  139.0280  114.7480   40.5410 C   0  0  0  0  0  0  0  0  0  0  0  0
  138.1450  115.6170   41.1370 O   0  0  0  0  0  0  0  0  0  0  0  0
  137.8940  116.8480   40.4770 C   0  0  0  0  0  0  0  0  0  0  0  0
  1  2  1  0
  2  3  1  0
  3  4  2  0
  4  5  1  0
  5  6  2  0
  6  7  1  0
  7  8  1  0
  8  9  1  0
  9 10  1  0
 10 11  1  0
 11 12  1  0
 12 13  1  0
 13 14  1  0
 14 15  2  0
 15 16  1  0
 16 17  2  0
 17 18  1  0
 18 19  2  0
 19 20  1  0
 20 21  1  0
 21 22  2  0
 21 23  1  0
 23 24  2  0
 24 25  1  0
 25 26  2  0
 26 27  1  0
 27 28  1  0
 26 29  1  0
 29 30  1  0
 30 31  1  0
 29 32  2  0
 11 33  1  0
 33 34  1  0
  6 35  1  0
 35 36  2  0
 36 37  1  0
 37 38  1  0
 36  3  1  0
 34  8  1  0
 20 12  2  0
 32 23  1  0
 19 14  1  0
M  END
$$$$
