MTSNDBYBIZSILH-UHFFFAOYSA-N_3RCD_m8
     RDKit          3D

 17 19  0  0  0  0  0  0  0  0999 V2000
   11.5290    1.6500   31.8630 C   0  0  0  0  0  0  0  0  0  0  0  0
   12.9020    1.8780   31.9030 C   0  0  0  0  0  0  0  0  0  0  0  0
   13.6890    1.6240   30.7750 C   0  0  0  0  0  0  0  0  0  0  0  0
   13.1140    1.1360   29.5950 C   0  0  0  0  0  0  0  0  0  0  0  0
   13.8600    0.8640   28.4360 N   0  0  0  0  0  0  0  0  0  0  0  0
   14.5180    1.7010   27.5270 C   0  0  0  0  0  0  0  0  0  0  0  0
   13.8760    2.8660   27.3140 N   0  0  0  0  0  0  0  0  0  0  0  0
   14.4830    3.7450   26.5120 C   0  0  0  0  0  0  0  0  0  0  0  0
   15.6540    3.5710   25.8910 N   0  0  0  0  0  0  0  0  0  0  0  0
   16.2530    2.3890   26.0640 C   0  0  0  0  0  0  0  0  0  0  0  0
   17.4490    2.1610   25.3940 C   0  0  0  0  0  0  0  0  0  0  0  0
   18.1280    0.9430   25.4820 C   0  0  0  0  0  0  0  0  0  0  0  0
   17.5960   -0.0830   26.2480 C   0  0  0  0  0  0  0  0  0  0  0  0
   16.4010    0.1260   26.9330 C   0  0  0  0  0  0  0  0  0  0  0  0
   15.7240    1.3740   26.8740 C   0  0  0  0  0  0  0  0  0  0  0  0
   11.7290    0.9210   29.5690 C   0  0  0  0  0  0  0  0  0  0  0  0
   10.9410    1.1720   30.6950 C   0  0  0  0  0  0  0  0  0  0  0  0
  1  2  2  0
  2  3  1  0
  3  4  2  0
  4  5  1  0
  5  6  1  0
  6  7  2  0
  7  8  1  0
  8  9  2  0
  9 10  1  0
 10 11  2  0
 11 12  1  0
 12 13  2  0
 13 14  1  0
 14 15  2  0
  4 16  1  0
 16 17  2  0
 17  1  1  0
 15  6  1  0
 15 10  1  0
M  END
$$$$
