MTSNDBYBIZSILH-UHFFFAOYSA-N_3POZ_m1
     RDKit          3D

 17 19  0  0  0  0  0  0  0  0999 V2000
   17.4230   33.9260   11.9600 C   0  0  0  0  0  0  0  0  0  0  0  0
   16.5440   34.5240   11.0610 C   0  0  0  0  0  0  0  0  0  0  0  0
   16.5580   34.1500    9.7130 C   0  0  0  0  0  0  0  0  0  0  0  0
   17.4500   33.1770    9.2480 C   0  0  0  0  0  0  0  0  0  0  0  0
   17.5030   32.7670    7.9050 N   0  0  0  0  0  0  0  0  0  0  0  0
   17.5150   31.4990    7.3110 C   0  0  0  0  0  0  0  0  0  0  0  0
   18.6790   31.2090    6.6980 N   0  0  0  0  0  0  0  0  0  0  0  0
   18.7880   29.9860    6.1710 C   0  0  0  0  0  0  0  0  0  0  0  0
   17.8490   29.0350    6.1800 N   0  0  0  0  0  0  0  0  0  0  0  0
   16.6790   29.3540    6.7410 C   0  0  0  0  0  0  0  0  0  0  0  0
   15.6670   28.4010    6.7250 C   0  0  0  0  0  0  0  0  0  0  0  0
   14.3990   28.6570    7.2510 C   0  0  0  0  0  0  0  0  0  0  0  0
   14.1230   29.9010    7.7980 C   0  0  0  0  0  0  0  0  0  0  0  0
   15.1250   30.8700    7.8290 C   0  0  0  0  0  0  0  0  0  0  0  0
   16.4270   30.6030    7.3260 C   0  0  0  0  0  0  0  0  0  0  0  0
   18.3210   32.5770   10.1690 C   0  0  0  0  0  0  0  0  0  0  0  0
   18.3120   32.9500   11.5150 C   0  0  0  0  0  0  0  0  0  0  0  0
  1  2  2  0
  2  3  1  0
  3  4  2  0
  4  5  1  0
  5  6  1  0
  6  7  2  0
  7  8  1  0
  8  9  2  0
  9 10  1  0
 10 11  2  0
 11 12  1  0
 12 13  2  0
 13 14  1  0
 14 15  2  0
  4 16  1  0
 16 17  2  0
 17  1  1  0
 15  6  1  0
 15 10  1  0
M  END
$$$$
