MTSNDBYBIZSILH-UHFFFAOYSA-N_3RCD_m4
     RDKit          3D

 17 19  0  0  0  0  0  0  0  0999 V2000
   13.6620    2.5030   30.9920 C   0  0  0  0  0  0  0  0  0  0  0  0
   12.9810    1.6370   31.8430 C   0  0  0  0  0  0  0  0  0  0  0  0
   11.7030    1.1810   31.5040 C   0  0  0  0  0  0  0  0  0  0  0  0
   11.0890    1.5880   30.3130 C   0  0  0  0  0  0  0  0  0  0  0  0
    9.8080    1.1600   29.9280 N   0  0  0  0  0  0  0  0  0  0  0  0
    8.6540    0.8700   30.6670 C   0  0  0  0  0  0  0  0  0  0  0  0
    8.2860   -0.4240   30.5950 N   0  0  0  0  0  0  0  0  0  0  0  0
    7.2350   -0.7880   31.3340 C   0  0  0  0  0  0  0  0  0  0  0  0
    6.5070    0.0110   32.1200 N   0  0  0  0  0  0  0  0  0  0  0  0
    6.8460    1.3030   32.1390 C   0  0  0  0  0  0  0  0  0  0  0  0
    6.0790    2.1680   32.9100 C   0  0  0  0  0  0  0  0  0  0  0  0
    6.3320    3.5410   32.9610 C   0  0  0  0  0  0  0  0  0  0  0  0
    7.3700    4.0730   32.2120 C   0  0  0  0  0  0  0  0  0  0  0  0
    8.1560    3.2230   31.4350 C   0  0  0  0  0  0  0  0  0  0  0  0
    7.9240    1.8220   31.4070 C   0  0  0  0  0  0  0  0  0  0  0  0
   11.7930    2.4530   29.4630 C   0  0  0  0  0  0  0  0  0  0  0  0
   13.0690    2.9110   29.8000 C   0  0  0  0  0  0  0  0  0  0  0  0
  1  2  2  0
  2  3  1  0
  3  4  2  0
  4  5  1  0
  5  6  1  0
  6  7  2  0
  7  8  1  0
  8  9  2  0
  9 10  1  0
 10 11  2  0
 11 12  1  0
 12 13  2  0
 13 14  1  0
 14 15  2  0
  4 16  1  0
 16 17  2  0
 17  1  1  0
 15  6  1  0
 15 10  1  0
M  END
$$$$
