MWONLFLWDWHANV-UHFFFAOYSA-N_2JKH_m1
     RDKit          3D

 30 33  0  0  0  0  0  0  0  0999 V2000
   -7.7090   12.0100   22.9700 C   0  0  0  0  0  0  0  0  0  0  0  0
   -6.8430   13.1160   22.7430 O   0  0  0  0  0  0  0  0  0  0  0  0
   -6.6600   13.9820   23.7860 C   0  0  0  0  0  0  0  0  0  0  0  0
   -7.6920   14.5230   24.5590 C   0  0  0  0  0  0  0  0  0  0  0  0
   -7.4060   15.4300   25.5880 C   0  0  0  0  0  0  0  0  0  0  0  0
   -6.0900   15.8090   25.8490 C   0  0  0  0  0  0  0  0  0  0  0  0
   -5.0490   15.2690   25.0960 C   0  0  0  0  0  0  0  0  0  0  0  0
   -5.3390   14.3440   24.0830 C   0  0  0  0  0  0  0  0  0  0  0  0
   -4.2150   13.7800   23.3120 C   0  0  0  0  0  0  0  0  0  0  0  0
   -3.6760   14.4900   22.4600 O   0  0  0  0  0  0  0  0  0  0  0  0
   -3.7150   12.4860   23.5310 N   0  0  0  0  0  0  0  0  0  0  0  0
   -3.0330   12.1800   24.6700 N   0  0  0  0  0  0  0  0  0  0  0  0
   -2.7110   10.8890   24.4800 C   0  0  0  0  0  0  0  0  0  0  0  0
   -1.9530   10.0870   25.4550 C   0  0  0  0  0  0  0  0  0  0  0  0
   -0.6230    9.7470   25.2160 C   0  0  0  0  0  0  0  0  0  0  0  0
    0.0520    8.9630   26.1480 C   0  0  0  0  0  0  0  0  0  0  0  0
   -0.6130    8.5430   27.2940 C   0  0  0  0  0  0  0  0  0  0  0  0
   -1.9320    8.9250   27.4600 C   0  0  0  0  0  0  0  0  0  0  0  0
   -2.6110    9.6890   26.5770 N   0  0  0  0  0  0  0  0  0  0  0  0
   -3.1390   10.3790   23.2740 N   0  0  0  0  0  0  0  0  0  0  0  0
   -3.7530   11.3810   22.6930 C   0  0  0  0  0  0  0  0  0  0  0  0
   -4.3550   11.3860   21.4860 N   0  0  0  0  0  0  0  0  0  0  0  0
   -3.8010   10.6310   20.3890 C   0  0  0  0  0  0  0  0  0  0  0  0
   -4.7330    9.4910   20.0470 C   0  0  0  0  0  0  0  0  0  0  0  0
   -5.9790    9.3710   20.6830 C   0  0  0  0  0  0  0  0  0  0  0  0
   -6.8210    8.3010   20.3840 C   0  0  0  0  0  0  0  0  0  0  0  0
   -6.4180    7.3500   19.4520 C   0  0  0  0  0  0  0  0  0  0  0  0
   -7.2260    6.3240   19.1650 F   0  0  0  0  0  0  0  0  0  0  0  0
   -5.1830    7.4430   18.8210 C   0  0  0  0  0  0  0  0  0  0  0  0
   -4.3380    8.5100   19.1220 C   0  0  0  0  0  0  0  0  0  0  0  0
  1  2  1  0
  2  3  1  0
  3  4  2  0
  4  5  1  0
  5  6  2  0
  6  7  1  0
  7  8  2  0
  8  9  1  0
  9 10  2  0
  9 11  1  0
 11 12  1  0
 12 13  2  0
 13 14  1  0
 14 15  2  0
 15 16  1  0
 16 17  2  0
 17 18  1  0
 18 19  2  0
 13 20  1  0
 20 21  2  0
 21 22  1  0
 22 23  1  0
 23 24  1  0
 24 25  2  0
 25 26  1  0
 26 27  2  0
 27 28  1  0
 27 29  1  0
 29 30  2  0
  8  3  1  0
 21 11  1  0
 30 24  1  0
 19 14  1  0
M  END
$$$$
