MXVRETICWXXRDS-VWLOTQADSA-N_9V8H_m4
     RDKit          3D

 35 39  0  0  0  0  0  0  0  0999 V2000
   -5.9740  -10.1020  -25.8540 C   0  0  0  0  0  0  0  0  0  0  0  0
   -7.3270   -9.4970  -25.9150 C   0  0  0  0  0  0  0  0  0  0  0  0
   -8.2200   -9.1750  -24.9100 C   0  0  0  0  0  0  0  0  0  0  0  0
   -8.0990   -9.3440  -23.4340 C   0  0  0  0  0  0  0  0  0  0  0  0
   -8.6720   -8.1550  -22.6650 C   0  0  0  0  0  0  0  0  0  0  0  0
   -8.1750   -8.1810  -21.3220 O   0  0  0  0  0  0  0  0  0  0  0  0
   -7.2310   -7.2460  -20.9900 C   0  0  0  0  0  0  0  0  0  0  0  0
   -7.7110   -5.9260  -20.9480 C   0  0  0  0  0  0  0  0  0  0  0  0
   -6.8700   -4.8560  -20.6260 C   0  0  0  0  0  0  0  0  0  0  0  0
   -5.5370   -5.1220  -20.3610 C   0  0  0  0  0  0  0  0  0  0  0  0
   -5.0590   -6.4370  -20.3920 C   0  0  0  0  0  0  0  0  0  0  0  0
   -5.8900   -7.5070  -20.6980 C   0  0  0  0  0  0  0  0  0  0  0  0
   -3.6130   -6.4930  -20.0130 C   0  0  0  0  0  0  0  0  0  0  0  0
   -3.1920   -5.0370  -20.2500 C   0  0  0  0  0  0  0  0  0  0  0  0
   -4.4400   -4.1660  -19.9640 C   0  0  1  0  0  0  0  0  0  0  0  0
   -4.4370   -2.8520  -20.7440 C   0  0  0  0  0  0  0  0  0  0  0  0
   -3.9000   -1.7140  -19.9230 C   0  0  0  0  0  0  0  0  0  0  0  0
   -2.8390   -1.6630  -19.3230 O   0  0  0  0  0  0  0  0  0  0  0  0
   -4.7610   -0.6790  -19.8750 O   0  0  0  0  0  0  0  0  0  0  0  0
   -9.3550   -8.6130  -25.4380 N   0  0  0  0  0  0  0  0  0  0  0  0
   -9.1980   -8.6010  -26.7500 C   0  0  0  0  0  0  0  0  0  0  0  0
  -10.1900   -8.0920  -27.6960 C   0  0  0  0  0  0  0  0  0  0  0  0
  -10.8330   -6.8790  -27.4310 C   0  0  0  0  0  0  0  0  0  0  0  0
  -11.7850   -6.3660  -28.3200 C   0  0  0  0  0  0  0  0  0  0  0  0
  -12.1300   -7.0590  -29.4900 C   0  0  0  0  0  0  0  0  0  0  0  0
  -13.1300   -6.5180  -30.4250 C   0  0  0  0  0  0  0  0  0  0  0  0
  -14.4380   -7.0330  -30.4660 C   0  0  0  0  0  0  0  0  0  0  0  0
  -15.3880   -6.5160  -31.3510 C   0  0  0  0  0  0  0  0  0  0  0  0
  -15.0460   -5.4770  -32.2120 C   0  0  0  0  0  0  0  0  0  0  0  0
  -13.7560   -4.9530  -32.1880 C   0  0  0  0  0  0  0  0  0  0  0  0
  -12.8070   -5.4690  -31.3010 C   0  0  0  0  0  0  0  0  0  0  0  0
  -11.4960   -8.2890  -29.7360 C   0  0  0  0  0  0  0  0  0  0  0  0
  -10.5410   -8.8010  -28.8490 C   0  0  0  0  0  0  0  0  0  0  0  0
   -7.9480   -9.0940  -27.0760 N   0  0  0  0  0  0  0  0  0  0  0  0
   -7.3680   -9.1230  -28.3990 C   0  0  0  0  0  0  0  0  0  0  0  0
  1  2  1  0
  2  3  2  0
  3  4  1  0
  4  5  1  0
  5  6  1  0
  6  7  1  0
  7  8  2  0
  8  9  1  0
  9 10  2  0
 10 11  1  0
 11 12  2  0
 11 13  1  0
 13 14  1  0
 14 15  1  0
 15 16  1  6
 16 17  1  0
 17 18  2  0
 17 19  1  0
  3 20  1  0
 20 21  2  0
 21 22  1  0
 22 23  2  0
 23 24  1  0
 24 25  2  0
 25 26  1  0
 26 27  2  0
 27 28  1  0
 28 29  2  0
 29 30  1  0
 30 31  2  0
 25 32  1  0
 32 33  2  0
 21 34  1  0
 34 35  1  0
 34  2  1  0
 12  7  1  0
 33 22  1  0
 15 10  1  0
 31 26  1  0
M  END
$$$$
