MYIILBMNTUDZDH-UHFFFAOYSA-N_3LXP_m2
     RDKit          3D

 33 37  0  0  0  0  0  0  0  0999 V2000
   -0.7670   23.0530  -27.2140 O   0  0  0  0  0  0  0  0  0  0  0  0
   -1.4970   24.0330  -27.3700 C   0  0  0  0  0  0  0  0  0  0  0  0
   -2.6210   24.0220  -28.3840 C   0  0  0  0  0  0  0  0  0  0  0  0
   -3.8730   24.6040  -27.7410 C   0  0  0  0  0  0  0  0  0  0  0  0
   -3.5460   25.8920  -27.1420 N   0  0  0  0  0  0  0  0  0  0  0  0
   -3.6770   27.0390  -27.8960 C   0  0  0  0  0  0  0  0  0  0  0  0
   -4.1420   26.9500  -29.1480 N   0  0  0  0  0  0  0  0  0  0  0  0
   -4.2470   28.0860  -29.8650 C   0  0  0  0  0  0  0  0  0  0  0  0
   -3.8910   29.3280  -29.3970 C   0  0  0  0  0  0  0  0  0  0  0  0
   -4.0300   30.5200  -30.2710 C   0  0  0  0  0  0  0  0  0  0  0  0
   -4.7090   30.2590  -31.4180 F   0  0  0  0  0  0  0  0  0  0  0  0
   -4.6720   31.5670  -29.6810 F   0  0  0  0  0  0  0  0  0  0  0  0
   -2.8250   31.0190  -30.6680 F   0  0  0  0  0  0  0  0  0  0  0  0
   -3.4370   29.3390  -28.0980 C   0  0  0  0  0  0  0  0  0  0  0  0
   -3.0450   30.5410  -27.3760 C   0  0  0  0  0  0  0  0  0  0  0  0
   -1.8310   31.1040  -27.2620 C   0  0  0  0  0  0  0  0  0  0  0  0
   -0.5860   30.6810  -27.7980 C   0  0  0  0  0  0  0  0  0  0  0  0
   -0.0310   31.2020  -28.9480 C   0  0  0  0  0  0  0  0  0  0  0  0
    1.1810   30.5980  -29.1440 N   0  0  0  0  0  0  0  0  0  0  0  0
    1.4260   29.6860  -28.1440 C   0  0  0  0  0  0  0  0  0  0  0  0
    2.5320   28.8510  -27.9440 C   0  0  0  0  0  0  0  0  0  0  0  0
    2.5110   27.9960  -26.8390 C   0  0  0  0  0  0  0  0  0  0  0  0
    1.4190   27.9730  -25.9760 C   0  0  0  0  0  0  0  0  0  0  0  0
    0.3200   28.8110  -26.1920 C   0  0  0  0  0  0  0  0  0  0  0  0
    0.3210   29.7000  -27.2880 C   0  0  0  0  0  0  0  0  0  0  0  0
   -1.9920   32.2980  -26.3950 C   0  0  0  0  0  0  0  0  0  0  0  0
   -1.1170   33.0600  -26.0280 O   0  0  0  0  0  0  0  0  0  0  0  0
   -3.2990   32.3860  -26.0720 N   0  0  0  0  0  0  0  0  0  0  0  0
   -3.9940   31.3610  -26.6030 C   0  0  0  0  0  0  0  0  0  0  0  0
   -5.1770   31.1270  -26.4400 O   0  0  0  0  0  0  0  0  0  0  0  0
   -3.3220   28.2120  -27.3580 N   0  0  0  0  0  0  0  0  0  0  0  0
   -2.5540   25.8510  -26.0740 C   0  0  0  0  0  0  0  0  0  0  0  0
   -1.2380   25.3330  -26.6360 C   0  0  0  0  0  0  0  0  0  0  0  0
  1  2  2  0
  2  3  1  0
  3  4  1  0
  4  5  1  0
  5  6  1  0
  6  7  2  0
  7  8  1  0
  8  9  2  0
  9 10  1  0
 10 11  1  0
 10 12  1  0
 10 13  1  0
  9 14  1  0
 14 15  1  0
 15 16  2  0
 16 17  1  0
 17 18  2  0
 18 19  1  0
 19 20  1  0
 20 21  2  0
 21 22  1  0
 22 23  2  0
 23 24  1  0
 24 25  2  0
 16 26  1  0
 26 27  2  0
 26 28  1  0
 28 29  1  0
 29 30  2  0
 14 31  2  0
  5 32  1  0
 32 33  1  0
 33  2  1  0
 31  6  1  0
 29 15  1  0
 25 17  1  0
 25 20  1  0
M  END
$$$$
