NAHITMMJENLIPQ-LMXLVEHLSA-N_3POZ_m5
     RDKit          3D

 34 37  0  0  0  0  0  0  0  0999 V2000
   19.8900   31.3410   11.7690 C   0  0  0  0  0  0  0  0  0  0  0  0
   20.7310   32.4660   12.0040 O   0  0  0  0  0  0  0  0  0  0  0  0
   20.5900   33.1150   13.2090 C   0  0  0  0  0  0  0  0  0  0  0  0
   21.4030   32.9170   14.3280 C   0  0  0  0  0  0  0  0  0  0  0  0
   21.2010   33.6110   15.5150 C   0  0  0  0  0  0  0  0  0  0  0  0
   22.0190   33.3590   16.5380 N   0  0  0  0  0  0  0  0  0  0  0  0
   21.7880   34.0270   17.6710 C   0  0  0  0  0  0  0  0  0  0  0  0
   20.8270   34.9310   17.8700 N   0  0  0  0  0  0  0  0  0  0  0  0
   20.0220   35.2030   16.8280 C   0  0  0  0  0  0  0  0  0  0  0  0
   19.0120   36.1780   16.9890 N   0  0  0  0  0  0  0  0  0  0  0  0
   17.6750   36.0470   17.4030 C   0  0  0  0  0  0  0  0  0  0  0  0
   17.2640   36.6810   18.5890 C   0  0  0  0  0  0  0  0  0  0  0  0
   15.9420   36.5970   19.0300 C   0  0  0  0  0  0  0  0  0  0  0  0
   15.0160   35.8770   18.2870 C   0  0  0  0  0  0  0  0  0  0  0  0
   13.7510   35.8050   18.7290 F   0  0  0  0  0  0  0  0  0  0  0  0
   15.3970   35.2480   17.1060 C   0  0  0  0  0  0  0  0  0  0  0  0
   14.2480   34.3750   16.1660 Cl  0  0  0  0  0  0  0  0  0  0  0  0
   16.7180   35.3370   16.6640 C   0  0  0  0  0  0  0  0  0  0  0  0
   20.1550   34.5390   15.5920 C   0  0  0  0  0  0  0  0  0  0  0  0
   19.3220   34.7380   14.4610 C   0  0  0  0  0  0  0  0  0  0  0  0
   19.5350   34.0390   13.2750 C   0  0  0  0  0  0  0  0  0  0  0  0
   18.7390   34.1960   12.1220 N   0  0  0  0  0  0  0  0  0  0  0  0
   17.3700   34.0920   12.0070 C   0  0  0  0  0  0  0  0  0  0  0  0
   16.5720   33.8680   12.9100 O   0  0  0  0  0  0  0  0  0  0  0  0
   16.9140   34.2910   10.5980 C   0  0  0  0  0  0  0  0  0  0  0  0
   16.2330   35.4310   10.3560 F   0  0  0  0  0  0  0  0  0  0  0  0
   17.1600   33.4060    9.6240 C   0  0  0  0  0  0  0  0  0  0  0  0
   16.7150   33.5690    8.2070 C   0  0  0  0  0  0  0  0  0  0  0  0
   16.5340   32.2810    7.5270 N   0  0  0  0  0  0  0  0  0  0  0  0
   17.7760   31.4770    7.4960 C   0  0  0  0  0  0  0  0  0  0  0  0
   17.5380   30.0990    6.8580 C   0  0  0  0  0  0  0  0  0  0  0  0
   16.5200   29.3700    7.5550 O   0  0  0  0  0  0  0  0  0  0  0  0
   15.2960   30.1140    7.5490 C   0  0  0  0  0  0  0  0  0  0  0  0
   15.4850   31.4890    8.2090 C   0  0  0  0  0  0  0  0  0  0  0  0
  1  2  1  0
  2  3  1  0
  3  4  2  0
  4  5  1  0
  5  6  2  0
  6  7  1  0
  7  8  2  0
  8  9  1  0
  9 10  1  0
 10 11  1  0
 11 12  2  0
 12 13  1  0
 13 14  2  0
 14 15  1  0
 14 16  1  0
 16 17  1  0
 16 18  2  0
  9 19  2  0
 19 20  1  0
 20 21  2  0
 21 22  1  0
 22 23  1  0
 23 24  2  0
 23 25  1  0
 25 26  1  0
 25 27  2  0
 27 28  1  0
 28 29  1  0
 29 30  1  0
 30 31  1  0
 31 32  1  0
 32 33  1  0
 33 34  1  0
 21  3  1  0
 34 29  1  0
 19  5  1  0
 18 11  1  0
M  END
$$$$
