NAHITMMJENLIPQ-LMXLVEHLSA-N_3RCD_m6
     RDKit          3D

 34 37  0  0  0  0  0  0  0  0999 V2000
   15.8350    7.4360   25.3530 C   0  0  0  0  0  0  0  0  0  0  0  0
   14.9460    6.4590   24.8210 O   0  0  0  0  0  0  0  0  0  0  0  0
   14.9460    5.2190   25.4180 C   0  0  0  0  0  0  0  0  0  0  0  0
   16.0520    4.3690   25.5040 C   0  0  0  0  0  0  0  0  0  0  0  0
   15.9770    3.1280   26.1250 C   0  0  0  0  0  0  0  0  0  0  0  0
   17.0780    2.3740   26.1580 N   0  0  0  0  0  0  0  0  0  0  0  0
   16.9710    1.1790   26.7450 C   0  0  0  0  0  0  0  0  0  0  0  0
   15.8720    0.6750   27.3100 N   0  0  0  0  0  0  0  0  0  0  0  0
   14.7720    1.4490   27.2990 C   0  0  0  0  0  0  0  0  0  0  0  0
   13.5970    0.9640   27.9170 N   0  0  0  0  0  0  0  0  0  0  0  0
   13.1210    1.1290   29.2290 C   0  0  0  0  0  0  0  0  0  0  0  0
   13.8220    1.9760   30.1050 C   0  0  0  0  0  0  0  0  0  0  0  0
   13.3780    2.1870   31.4120 C   0  0  0  0  0  0  0  0  0  0  0  0
   12.2250    1.5530   31.8550 C   0  0  0  0  0  0  0  0  0  0  0  0
   11.8150    1.7660   33.1150 F   0  0  0  0  0  0  0  0  0  0  0  0
   11.5090    0.7170   31.0030 C   0  0  0  0  0  0  0  0  0  0  0  0
   10.0650   -0.0530   31.5380 Cl  0  0  0  0  0  0  0  0  0  0  0  0
   11.9530    0.5100   29.6960 C   0  0  0  0  0  0  0  0  0  0  0  0
   14.7610    2.7180   26.6850 C   0  0  0  0  0  0  0  0  0  0  0  0
   13.6340    3.5730   26.5940 C   0  0  0  0  0  0  0  0  0  0  0  0
   13.7200    4.8170   25.9720 C   0  0  0  0  0  0  0  0  0  0  0  0
   12.6330    5.7080   25.8520 N   0  0  0  0  0  0  0  0  0  0  0  0
   11.5120    5.5870   25.0600 C   0  0  0  0  0  0  0  0  0  0  0  0
   11.2310    4.6490   24.3220 O   0  0  0  0  0  0  0  0  0  0  0  0
   10.6090    6.7700   25.1920 C   0  0  0  0  0  0  0  0  0  0  0  0
   11.1800    7.8950   25.6720 F   0  0  0  0  0  0  0  0  0  0  0  0
    9.3130    6.7340   24.8570 C   0  0  0  0  0  0  0  0  0  0  0  0
    8.3800    7.8950   24.9800 C   0  0  0  0  0  0  0  0  0  0  0  0
    7.8820    8.3510   23.6770 N   0  0  0  0  0  0  0  0  0  0  0  0
    6.4480    8.7130   23.7130 C   0  0  0  0  0  0  0  0  0  0  0  0
    5.9750    9.2690   22.3600 C   0  0  0  0  0  0  0  0  0  0  0  0
    6.7430   10.4150   21.9700 O   0  0  0  0  0  0  0  0  0  0  0  0
    8.1290   10.0650   21.8810 C   0  0  0  0  0  0  0  0  0  0  0  0
    8.6490    9.5340   23.2250 C   0  0  0  0  0  0  0  0  0  0  0  0
  1  2  1  0
  2  3  1  0
  3  4  2  0
  4  5  1  0
  5  6  2  0
  6  7  1  0
  7  8  2  0
  8  9  1  0
  9 10  1  0
 10 11  1  0
 11 12  2  0
 12 13  1  0
 13 14  2  0
 14 15  1  0
 14 16  1  0
 16 17  1  0
 16 18  2  0
  9 19  2  0
 19 20  1  0
 20 21  2  0
 21 22  1  0
 22 23  1  0
 23 24  2  0
 23 25  1  0
 25 26  1  0
 25 27  2  0
 27 28  1  0
 28 29  1  0
 29 30  1  0
 30 31  1  0
 31 32  1  0
 32 33  1  0
 33 34  1  0
 21  3  1  0
 34 29  1  0
 19  5  1  0
 18 11  1  0
M  END
$$$$
