NDGWCDFBMHRQMA-HKALDPMFSA-N_6N7A_m4
     RDKit          3D

 31 33  0  0  0  0  0  0  0  0999 V2000
    7.9860  -25.9110   23.8270 N   0  0  0  0  0  0  0  0  0  0  0  0
    6.9450  -25.6730   23.3720 C   0  0  0  0  0  0  0  0  0  0  0  0
    5.6500  -25.3620   22.7420 C   0  0  2  0  0  0  0  0  0  0  0  0
    4.8790  -26.6530   22.4460 C   0  0  0  0  0  0  0  0  0  0  0  0
    3.4970  -26.3730   21.8560 C   0  0  0  0  0  0  0  0  0  0  0  0
    3.4270  -25.0860   21.0350 C   0  0  0  0  0  0  0  0  0  0  0  0
    4.7690  -24.7380   20.3980 C   0  0  0  0  0  0  0  0  0  0  0  0
    5.8900  -24.5580   21.4440 C   0  0  1  0  0  0  0  0  0  0  0  0
    6.1200  -23.1460   21.7610 N   0  0  0  0  0  0  0  0  0  0  0  0
    7.3230  -22.5070   21.8010 C   0  0  0  0  0  0  0  0  0  0  0  0
    7.0530  -21.2100   22.2010 C   0  0  0  0  0  0  0  0  0  0  0  0
    7.9800  -20.1160   22.4150 C   0  0  0  0  0  0  0  0  0  0  0  0
    9.0850  -20.0840   21.6160 N   0  0  0  0  0  0  0  0  0  0  0  0
    7.8030  -19.2500   23.2680 O   0  0  0  0  0  0  0  0  0  0  0  0
    5.6310  -21.1730   22.3690 C   0  0  0  0  0  0  0  0  0  0  0  0
    4.9920  -20.0440   22.7640 N   0  0  0  0  0  0  0  0  0  0  0  0
    4.1720  -19.1250   22.0760 C   0  0  0  0  0  0  0  0  0  0  0  0
    2.7760  -19.2810   22.1600 C   0  0  0  0  0  0  0  0  0  0  0  0
    1.9040  -18.4080   21.5000 C   0  0  0  0  0  0  0  0  0  0  0  0
    2.4300  -17.3570   20.7510 C   0  0  0  0  0  0  0  0  0  0  0  0
    1.3290  -16.2290   19.9200 S   0  0  0  0  0  0  0  0  0  0  0  0
    0.1170  -16.9680   19.6320 O   0  0  0  0  0  0  0  0  0  0  0  0
    1.3040  -15.0170   20.7140 O   0  0  0  0  0  0  0  0  0  0  0  0
    2.1850  -15.9160   18.4190 C   0  0  0  0  0  0  0  0  0  0  0  0
    1.2450  -15.2910   17.4510 C   0  0  0  0  0  0  0  0  0  0  0  0
    0.5160  -16.1920   16.7650 F   0  0  0  0  0  0  0  0  0  0  0  0
    0.4110  -14.4030   18.0190 F   0  0  0  0  0  0  0  0  0  0  0  0
    1.9690  -14.6030   16.5280 F   0  0  0  0  0  0  0  0  0  0  0  0
    3.8090  -17.1920   20.6310 C   0  0  0  0  0  0  0  0  0  0  0  0
    4.6690  -18.0740   21.2950 C   0  0  0  0  0  0  0  0  0  0  0  0
    5.0890  -22.3650   22.1020 N   0  0  0  0  0  0  0  0  0  0  0  0
  1  2  3  0
  3  2  1  6
  3  4  1  0
  4  5  1  0
  5  6  1  0
  6  7  1  0
  7  8  1  0
  8  9  1  1
  9 10  1  0
 10 11  2  0
 11 12  1  0
 12 13  1  0
 12 14  2  0
 11 15  1  0
 15 16  1  0
 16 17  1  0
 17 18  2  0
 18 19  1  0
 19 20  2  0
 20 21  1  0
 21 22  2  0
 21 23  2  0
 21 24  1  0
 24 25  1  0
 25 26  1  0
 25 27  1  0
 25 28  1  0
 20 29  1  0
 29 30  2  0
 15 31  2  0
  8  3  1  0
 31  9  1  0
 30 17  1  0
M  END
$$$$
