NDTNHGKZDUSWEQ-UHFFFAOYSA-N_4UDW_m4
     RDKit          3D

 32 35  0  0  0  0  0  0  0  0999 V2000
  126.8100  -13.9540  164.1550 N   0  0  0  0  0  0  0  0  0  0  0  0
  127.8950  -14.1240  163.4710 C   0  0  0  0  0  0  0  0  0  0  0  0
  128.3700  -13.1030  162.7100 N   0  0  0  0  0  0  0  0  0  0  0  0
  128.6110  -15.4360  163.5440 C   0  0  0  0  0  0  0  0  0  0  0  0
  127.8700  -16.6190  163.4610 C   0  0  0  0  0  0  0  0  0  0  0  0
  128.4900  -17.8710  163.5280 C   0  0  0  0  0  0  0  0  0  0  0  0
  129.8810  -17.8960  163.6750 C   0  0  0  0  0  0  0  0  0  0  0  0
  130.7380  -18.9640  163.7610 N   0  0  0  0  0  0  0  0  0  0  0  0
  132.0390  -18.5390  163.8750 C   0  0  0  0  0  0  0  0  0  0  0  0
  133.1410  -19.4920  163.9710 C   0  0  0  0  0  0  0  0  0  0  0  0
  134.0800  -19.3410  165.0000 C   0  0  0  0  0  0  0  0  0  0  0  0
  135.1730  -20.2130  165.1130 C   0  0  0  0  0  0  0  0  0  0  0  0
  136.1870  -20.0350  166.2180 C   0  0  0  0  0  0  0  0  0  0  0  0
  136.5500  -18.5710  166.4650 C   0  0  0  0  0  0  0  0  0  0  0  0
  137.7610  -18.1430  165.6820 C   0  0  0  0  0  0  0  0  0  0  0  0
  138.3310  -18.7640  164.8020 O   0  0  0  0  0  0  0  0  0  0  0  0
  138.1680  -16.9030  166.0180 O   0  0  0  0  0  0  0  0  0  0  0  0
  135.3220  -21.2420  164.1720 C   0  0  0  0  0  0  0  0  0  0  0  0
  134.3900  -21.4010  163.1430 C   0  0  0  0  0  0  0  0  0  0  0  0
  134.6410  -22.8250  161.9150 Br  0  0  0  0  0  0  0  0  0  0  0  0
  133.2970  -20.5360  163.0450 C   0  0  0  0  0  0  0  0  0  0  0  0
  132.3780  -20.7280  162.0440 O   0  0  0  0  0  0  0  0  0  0  0  0
  132.0290  -17.1490  163.8980 C   0  0  0  0  0  0  0  0  0  0  0  0
  133.2110  -16.2360  164.0240 C   0  0  0  0  0  0  0  0  0  0  0  0
  133.4390  -16.0320  165.5050 C   0  0  0  0  0  0  0  0  0  0  0  0
  134.6950  -15.6530  166.0050 C   0  0  0  0  0  0  0  0  0  0  0  0
  134.8850  -15.4500  167.3730 C   0  0  0  0  0  0  0  0  0  0  0  0
  133.8230  -15.6280  168.2580 C   0  0  0  0  0  0  0  0  0  0  0  0
  132.5740  -16.0140  167.7780 C   0  0  0  0  0  0  0  0  0  0  0  0
  132.3840  -16.2210  166.4120 C   0  0  0  0  0  0  0  0  0  0  0  0
  130.6570  -16.7410  163.7540 C   0  0  0  0  0  0  0  0  0  0  0  0
  130.0070  -15.4880  163.6840 C   0  0  0  0  0  0  0  0  0  0  0  0
  1  2  2  3
  2  3  1  0
  2  4  1  0
  4  5  2  0
  5  6  1  0
  6  7  2  0
  7  8  1  0
  8  9  1  0
  9 10  1  0
 10 11  2  0
 11 12  1  0
 12 13  1  0
 13 14  1  0
 14 15  1  0
 15 16  2  0
 15 17  1  0
 12 18  2  0
 18 19  1  0
 19 20  1  0
 19 21  2  0
 21 22  1  0
  9 23  2  0
 23 24  1  0
 24 25  1  0
 25 26  2  0
 26 27  1  0
 27 28  2  0
 28 29  1  0
 29 30  2  0
 23 31  1  0
 31 32  2  0
 32  4  1  0
 31  7  1  0
 21 10  1  0
 30 25  1  0
M  END
$$$$
