NDYAVUSEOIDPAZ-IBGZPJMESA-N_6LXA_m1
     RDKit          3D

 30 33  0  0  0  0  0  0  0  0999 V2000
    4.1290    8.0490   -0.5080 O   0  0  0  0  0  0  0  0  0  0  0  0
    2.9190    7.9760   -0.4010 C   0  0  0  0  0  0  0  0  0  0  0  0
    2.1910    9.0710   -0.1030 O   0  0  0  0  0  0  0  0  0  0  0  0
    2.0570    6.7510   -0.5360 C   0  0  0  0  0  0  0  0  0  0  0  0
    2.8000    5.6070   -1.2250 C   0  0  2  0  0  0  0  0  0  0  0  0
    4.0950    5.1980   -0.4830 C   0  0  0  0  0  0  0  0  0  0  0  0
    5.0340    4.6030   -1.5410 C   0  0  0  0  0  0  0  0  0  0  0  0
    4.6250    5.3800   -2.7510 C   0  0  0  0  0  0  0  0  0  0  0  0
    5.3230    5.5220   -3.9400 C   0  0  0  0  0  0  0  0  0  0  0  0
    4.7520    6.2630   -4.9800 C   0  0  0  0  0  0  0  0  0  0  0  0
    5.5260    6.3480   -6.1060 O   0  0  0  0  0  0  0  0  0  0  0  0
    6.5960    5.4130   -6.2330 C   0  0  0  0  0  0  0  0  0  0  0  0
    7.7620    6.1260   -6.9060 C   0  0  0  0  0  0  0  0  0  0  0  0
    8.8870    5.1610   -7.2540 C   0  0  0  0  0  0  0  0  0  0  0  0
   10.0760    5.9260   -7.4470 O   0  0  0  0  0  0  0  0  0  0  0  0
   10.2140    6.5750   -8.6420 C   0  0  0  0  0  0  0  0  0  0  0  0
   10.4880    5.9850   -9.8740 C   0  0  0  0  0  0  0  0  0  0  0  0
   10.6050    6.7760  -11.0250 C   0  0  0  0  0  0  0  0  0  0  0  0
   10.4480    8.1720  -10.9730 C   0  0  0  0  0  0  0  0  0  0  0  0
   10.5700    8.9940  -12.1800 C   0  0  0  0  0  0  0  0  0  0  0  0
   11.6520    8.9250  -13.0430 C   0  0  0  0  0  0  0  0  0  0  0  0
   11.7930    9.6640  -14.1640 N   0  0  0  0  0  0  0  0  0  0  0  0
   10.7930   10.5190  -14.4220 C   0  0  0  0  0  0  0  0  0  0  0  0
    9.6930   10.6900  -13.6760 N   0  0  0  0  0  0  0  0  0  0  0  0
    9.6120    9.9160  -12.5700 C   0  0  0  0  0  0  0  0  0  0  0  0
   10.1720    8.7490   -9.7240 C   0  0  0  0  0  0  0  0  0  0  0  0
   10.0580    7.9590   -8.5760 C   0  0  0  0  0  0  0  0  0  0  0  0
    3.4820    6.8360   -4.8100 C   0  0  0  0  0  0  0  0  0  0  0  0
    2.7760    6.6770   -3.6090 C   0  0  0  0  0  0  0  0  0  0  0  0
    3.3610    5.9540   -2.5810 C   0  0  0  0  0  0  0  0  0  0  0  0
  1  2  2  0
  2  3  1  0
  2  4  1  0
  5  4  1  1
  5  6  1  0
  6  7  1  0
  7  8  1  0
  8  9  2  0
  9 10  1  0
 10 11  1  0
 11 12  1  0
 12 13  1  0
 13 14  1  0
 14 15  1  0
 15 16  1  0
 16 17  2  0
 17 18  1  0
 18 19  2  0
 19 20  1  0
 20 21  2  0
 21 22  1  0
 22 23  2  0
 23 24  1  0
 24 25  2  0
 19 26  1  0
 26 27  2  0
 10 28  2  0
 28 29  1  0
 29 30  2  0
 30  5  1  0
 30  8  1  0
 27 16  1  0
 25 20  1  0
M  END
$$$$
