NDYAVUSEOIDPAZ-IBGZPJMESA-N_6LXA_m6
     RDKit          3D

 30 33  0  0  0  0  0  0  0  0999 V2000
    6.2050    4.9800   -1.6090 O   0  0  0  0  0  0  0  0  0  0  0  0
    5.1180    4.7260   -1.1230 C   0  0  0  0  0  0  0  0  0  0  0  0
    4.7230    3.4470   -0.9630 O   0  0  0  0  0  0  0  0  0  0  0  0
    4.0660    5.6990   -0.6670 C   0  0  0  0  0  0  0  0  0  0  0  0
    3.3690    6.3760   -1.8450 C   0  0  2  0  0  0  0  0  0  0  0  0
    3.1790    5.4320   -3.0560 C   0  0  0  0  0  0  0  0  0  0  0  0
    3.1330    6.3250   -4.3030 C   0  0  0  0  0  0  0  0  0  0  0  0
    4.0240    7.4490   -3.8780 C   0  0  0  0  0  0  0  0  0  0  0  0
    4.6270    8.4000   -4.6860 C   0  0  0  0  0  0  0  0  0  0  0  0
    5.3980    9.4050   -4.0920 C   0  0  0  0  0  0  0  0  0  0  0  0
    5.9550   10.2880   -4.9780 O   0  0  0  0  0  0  0  0  0  0  0  0
    7.1720    9.8950   -5.6120 C   0  0  0  0  0  0  0  0  0  0  0  0
    8.3130   10.6430   -4.9370 C   0  0  0  0  0  0  0  0  0  0  0  0
    9.1900   11.3650   -5.9510 C   0  0  0  0  0  0  0  0  0  0  0  0
   10.1630   10.4370   -6.4280 O   0  0  0  0  0  0  0  0  0  0  0  0
   10.2830   10.2990   -7.7830 C   0  0  0  0  0  0  0  0  0  0  0  0
    9.9810    9.1590   -8.5250 C   0  0  0  0  0  0  0  0  0  0  0  0
   10.1530    9.1570   -9.9160 C   0  0  0  0  0  0  0  0  0  0  0  0
   10.6260   10.2920  -10.5970 C   0  0  0  0  0  0  0  0  0  0  0  0
   10.8030   10.2850  -12.0520 C   0  0  0  0  0  0  0  0  0  0  0  0
   10.5850   11.3980  -12.8500 C   0  0  0  0  0  0  0  0  0  0  0  0
   10.7420   11.4260  -14.1910 N   0  0  0  0  0  0  0  0  0  0  0  0
   11.1340   10.2740  -14.7520 C   0  0  0  0  0  0  0  0  0  0  0  0
   11.3780    9.1270  -14.1030 N   0  0  0  0  0  0  0  0  0  0  0  0
   11.2060    9.1670  -12.7630 C   0  0  0  0  0  0  0  0  0  0  0  0
   10.9240   11.4320   -9.8330 C   0  0  0  0  0  0  0  0  0  0  0  0
   10.7540   11.4310   -8.4450 C   0  0  0  0  0  0  0  0  0  0  0  0
    5.5360    9.4440   -2.6960 C   0  0  0  0  0  0  0  0  0  0  0  0
    4.9110    8.4860   -1.8850 C   0  0  0  0  0  0  0  0  0  0  0  0
    4.1640    7.4860   -2.4870 C   0  0  0  0  0  0  0  0  0  0  0  0
  1  2  2  0
  2  3  1  0
  2  4  1  0
  5  4  1  1
  5  6  1  0
  6  7  1  0
  7  8  1  0
  8  9  2  0
  9 10  1  0
 10 11  1  0
 11 12  1  0
 12 13  1  0
 13 14  1  0
 14 15  1  0
 15 16  1  0
 16 17  2  0
 17 18  1  0
 18 19  2  0
 19 20  1  0
 20 21  2  0
 21 22  1  0
 22 23  2  0
 23 24  1  0
 24 25  2  0
 19 26  1  0
 26 27  2  0
 10 28  2  0
 28 29  1  0
 29 30  2  0
 30  5  1  0
 30  8  1  0
 27 16  1  0
 25 20  1  0
M  END
$$$$
