NFFXEUUOMTXWCX-UHFFFAOYSA-N_6LXA_m8
     RDKit          3D

 30 32  0  0  0  0  0  0  0  0999 V2000
   11.6290    9.9060  -15.1140 C   0  0  0  0  0  0  0  0  0  0  0  0
   10.6970    9.4180  -14.1550 O   0  0  0  0  0  0  0  0  0  0  0  0
   10.5960   10.0780  -12.9570 C   0  0  0  0  0  0  0  0  0  0  0  0
   10.2500   11.4320  -12.8550 C   0  0  0  0  0  0  0  0  0  0  0  0
   10.1540   12.0600  -11.6090 C   0  0  0  0  0  0  0  0  0  0  0  0
   10.4030   11.3520  -10.4320 C   0  0  0  0  0  0  0  0  0  0  0  0
   10.2710   12.0280   -9.0830 C   0  0  0  0  0  0  0  0  0  0  0  0
   10.8520   11.2670   -7.8840 C   0  0  1  0  0  0  0  0  0  0  0  0
   11.6570   12.3260   -6.6330 S   0  0  0  0  0  0  0  0  0  0  0  0
   10.5350   11.8550   -5.3800 C   0  0  0  0  0  0  0  0  0  0  0  0
   10.5470   12.3180   -4.2530 O   0  0  0  0  0  0  0  0  0  0  0  0
    9.6840   10.9080   -5.8360 N   0  0  0  0  0  0  0  0  0  0  0  0
    9.7910   10.4980   -7.1300 C   0  0  0  0  0  0  0  0  0  0  0  0
    9.1050    9.6080   -7.6150 O   0  0  0  0  0  0  0  0  0  0  0  0
   10.7630   10.0010  -10.5290 C   0  0  0  0  0  0  0  0  0  0  0  0
   10.8600    9.3520  -11.7770 C   0  0  0  0  0  0  0  0  0  0  0  0
   11.2330    7.8970  -11.7330 C   0  0  0  0  0  0  0  0  0  0  0  0
   12.3270    7.5240  -12.1450 O   0  0  0  0  0  0  0  0  0  0  0  0
   10.3110    7.0190  -11.2230 N   0  0  0  0  0  0  0  0  0  0  0  0
   10.5730    5.6050  -11.1370 C   0  0  0  0  0  0  0  0  0  0  0  0
   10.2200    5.0790   -9.7720 C   0  0  0  0  0  0  0  0  0  0  0  0
    9.6970    3.7880   -9.6200 C   0  0  0  0  0  0  0  0  0  0  0  0
    9.3380    3.3130   -8.3570 C   0  0  0  0  0  0  0  0  0  0  0  0
    9.4920    4.1190   -7.2210 C   0  0  0  0  0  0  0  0  0  0  0  0
    9.0810    3.6150   -5.8600 C   0  0  0  0  0  0  0  0  0  0  0  0
    8.8920    2.2670   -5.8440 F   0  0  0  0  0  0  0  0  0  0  0  0
    7.9130    4.1610   -5.4160 F   0  0  0  0  0  0  0  0  0  0  0  0
   10.0020    3.8740   -4.8900 F   0  0  0  0  0  0  0  0  0  0  0  0
    9.9970    5.4180   -7.3770 C   0  0  0  0  0  0  0  0  0  0  0  0
   10.3550    5.8940   -8.6400 C   0  0  0  0  0  0  0  0  0  0  0  0
  1  2  1  0
  2  3  1  0
  3  4  2  0
  4  5  1  0
  5  6  2  0
  6  7  1  0
  8  7  1  6
  8  9  1  0
  9 10  1  0
 10 11  2  0
 10 12  1  0
 12 13  1  0
 13 14  2  0
  6 15  1  0
 15 16  2  0
 16 17  1  0
 17 18  2  0
 17 19  1  0
 19 20  1  0
 20 21  1  0
 21 22  2  0
 22 23  1  0
 23 24  2  0
 24 25  1  0
 25 26  1  0
 25 27  1  0
 25 28  1  0
 24 29  1  0
 29 30  2  0
 16  3  1  0
 30 21  1  0
 13  8  1  0
M  END
$$$$
