NGAAOEYVYQJXJR-UHFFFAOYSA-N_3LXP_m8
     RDKit          3D

 25 28  0  0  0  0  0  0  0  0999 V2000
   -2.9300   30.6610  -27.1230 C   0  0  0  0  0  0  0  0  0  0  0  0
   -3.2530   29.4400  -27.9720 C   0  0  0  0  0  0  0  0  0  0  0  0
   -4.0720   29.7700  -29.2330 C   0  0  1  0  0  0  0  0  0  0  0  0
   -3.4330   30.8420  -30.1340 C   0  0  0  0  0  0  0  0  0  0  0  0
   -4.4030   31.5560  -30.8970 O   0  0  0  0  0  0  0  0  0  0  0  0
   -4.3300   28.5410  -29.9910 N   0  0  0  0  0  0  0  0  0  0  0  0
   -4.0880   27.2600  -29.5750 C   0  0  0  0  0  0  0  0  0  0  0  0
   -4.4580   26.4280  -30.6160 C   0  0  0  0  0  0  0  0  0  0  0  0
   -4.4160   24.9830  -30.7070 C   0  0  0  0  0  0  0  0  0  0  0  0
   -3.8220   24.3440  -29.7390 N   0  0  0  0  0  0  0  0  0  0  0  0
   -3.7430   22.9620  -29.7980 C   0  0  0  0  0  0  0  0  0  0  0  0
   -3.0450   22.3670  -28.6970 C   0  0  0  0  0  0  0  0  0  0  0  0
   -2.5820   21.0360  -28.5730 C   0  0  0  0  0  0  0  0  0  0  0  0
   -1.9690   20.8100  -27.4060 N   0  0  0  0  0  0  0  0  0  0  0  0
   -2.0430   21.9960  -26.7780 N   0  0  0  0  0  0  0  0  0  0  0  0
   -1.4810   22.1330  -25.4560 C   0  0  0  0  0  0  0  0  0  0  0  0
   -2.6720   22.9630  -27.5090 C   0  0  0  0  0  0  0  0  0  0  0  0
   -4.2700   22.2590  -30.8150 C   0  0  0  0  0  0  0  0  0  0  0  0
   -4.9200   22.9240  -31.8370 N   0  0  0  0  0  0  0  0  0  0  0  0
   -5.5220   22.3920  -32.9280 N   0  0  0  0  0  0  0  0  0  0  0  0
   -6.0420   23.4400  -33.5680 C   0  0  0  0  0  0  0  0  0  0  0  0
   -5.7710   24.6540  -32.9200 C   0  0  0  0  0  0  0  0  0  0  0  0
   -5.0240   24.2990  -31.8180 C   0  0  0  0  0  0  0  0  0  0  0  0
   -4.9440   27.3260  -31.5990 C   0  0  0  0  0  0  0  0  0  0  0  0
   -4.8420   28.6080  -31.2360 N   0  0  0  0  0  0  0  0  0  0  0  0
  1  2  1  0
  3  2  1  1
  3  4  1  0
  4  5  1  0
  3  6  1  0
  6  7  1  0
  7  8  2  0
  8  9  1  0
  9 10  2  0
 10 11  1  0
 11 12  1  0
 12 13  1  0
 13 14  2  0
 14 15  1  0
 15 16  1  0
 15 17  1  0
 11 18  2  0
 18 19  1  0
 19 20  1  0
 20 21  2  0
 21 22  1  0
 22 23  2  0
  8 24  1  0
 24 25  2  0
 25  6  1  0
 23  9  1  0
 17 12  2  0
 23 19  1  0
M  END
$$$$
