NGAAOEYVYQJXJR-UHFFFAOYSA-N_6N7A_m4
     RDKit          3D

 25 28  0  0  0  0  0  0  0  0999 V2000
    5.2590  -28.9860   22.7040 C   0  0  0  0  0  0  0  0  0  0  0  0
    4.4350  -27.7710   23.1050 C   0  0  0  0  0  0  0  0  0  0  0  0
    4.1080  -26.8370   21.9260 C   0  0  1  0  0  0  0  0  0  0  0  0
    2.6020  -26.6000   21.7100 C   0  0  0  0  0  0  0  0  0  0  0  0
    2.2160  -26.7750   20.3500 O   0  0  0  0  0  0  0  0  0  0  0  0
    4.8150  -25.5630   22.0920 N   0  0  0  0  0  0  0  0  0  0  0  0
    4.9370  -24.5690   21.1590 C   0  0  0  0  0  0  0  0  0  0  0  0
    5.7030  -23.5730   21.7360 C   0  0  0  0  0  0  0  0  0  0  0  0
    6.1310  -22.3000   21.1940 C   0  0  0  0  0  0  0  0  0  0  0  0
    5.1970  -21.4550   20.8560 N   0  0  0  0  0  0  0  0  0  0  0  0
    5.5630  -20.2330   20.3150 C   0  0  0  0  0  0  0  0  0  0  0  0
    4.4580  -19.3960   19.9550 C   0  0  0  0  0  0  0  0  0  0  0  0
    4.1240  -18.8910   18.6770 C   0  0  0  0  0  0  0  0  0  0  0  0
    3.0220  -18.1330   18.6930 N   0  0  0  0  0  0  0  0  0  0  0  0
    2.6510  -18.1480   19.9840 N   0  0  0  0  0  0  0  0  0  0  0  0
    1.4790  -17.4120   20.3920 C   0  0  0  0  0  0  0  0  0  0  0  0
    3.4730  -18.8930   20.7810 C   0  0  0  0  0  0  0  0  0  0  0  0
    6.8500  -19.8880   20.1380 C   0  0  0  0  0  0  0  0  0  0  0  0
    7.8490  -20.7660   20.5110 N   0  0  0  0  0  0  0  0  0  0  0  0
    9.1900  -20.5920   20.4250 N   0  0  0  0  0  0  0  0  0  0  0  0
    9.7070  -21.6970   20.9620 C   0  0  0  0  0  0  0  0  0  0  0  0
    8.7210  -22.6040   21.3800 C   0  0  0  0  0  0  0  0  0  0  0  0
    7.5290  -21.9930   21.0560 C   0  0  0  0  0  0  0  0  0  0  0  0
    5.9570  -24.0680   23.0410 C   0  0  0  0  0  0  0  0  0  0  0  0
    5.4460  -25.2840   23.2500 N   0  0  0  0  0  0  0  0  0  0  0  0
  1  2  1  0
  3  2  1  1
  3  4  1  0
  4  5  1  0
  3  6  1  0
  6  7  1  0
  7  8  2  0
  8  9  1  0
  9 10  2  0
 10 11  1  0
 11 12  1  0
 12 13  1  0
 13 14  2  0
 14 15  1  0
 15 16  1  0
 15 17  1  0
 11 18  2  0
 18 19  1  0
 19 20  1  0
 20 21  2  0
 21 22  1  0
 22 23  2  0
  8 24  1  0
 24 25  2  0
 25  6  1  0
 23  9  1  0
 17 12  2  0
 23 19  1  0
M  END
$$$$
