NGAAOEYVYQJXJR-UHFFFAOYSA-N_6N7A_m1
     RDKit          3D

 25 28  0  0  0  0  0  0  0  0999 V2000
    3.9150  -19.4570   22.9380 C   0  0  0  0  0  0  0  0  0  0  0  0
    5.3330  -19.7010   22.4410 C   0  0  0  0  0  0  0  0  0  0  0  0
    5.3940  -20.1840   20.9800 C   0  0  1  0  0  0  0  0  0  0  0  0
    6.7350  -19.9000   20.2800 C   0  0  0  0  0  0  0  0  0  0  0  0
    6.9610  -20.7640   19.1700 O   0  0  0  0  0  0  0  0  0  0  0  0
    5.0670  -21.6120   20.9160 N   0  0  0  0  0  0  0  0  0  0  0  0
    5.3950  -22.5670   21.8410 C   0  0  0  0  0  0  0  0  0  0  0  0
    4.9100  -23.7690   21.3610 C   0  0  0  0  0  0  0  0  0  0  0  0
    4.9760  -25.0940   21.9420 C   0  0  0  0  0  0  0  0  0  0  0  0
    5.9920  -25.3520   22.7160 N   0  0  0  0  0  0  0  0  0  0  0  0
    6.1030  -26.6140   23.2770 C   0  0  0  0  0  0  0  0  0  0  0  0
    7.2710  -26.7960   24.0870 C   0  0  0  0  0  0  0  0  0  0  0  0
    7.6830  -27.9590   24.7780 C   0  0  0  0  0  0  0  0  0  0  0  0
    8.8280  -27.7840   25.4460 N   0  0  0  0  0  0  0  0  0  0  0  0
    9.1500  -26.5060   25.1860 N   0  0  0  0  0  0  0  0  0  0  0  0
   10.3500  -25.9470   25.7610 C   0  0  0  0  0  0  0  0  0  0  0  0
    8.2540  -25.8710   24.3730 C   0  0  0  0  0  0  0  0  0  0  0  0
    5.1900  -27.5760   23.0580 C   0  0  0  0  0  0  0  0  0  0  0  0
    4.0980  -27.3080   22.2560 N   0  0  0  0  0  0  0  0  0  0  0  0
    3.0750  -28.1360   21.9320 N   0  0  0  0  0  0  0  0  0  0  0  0
    2.2610  -27.3880   21.1880 C   0  0  0  0  0  0  0  0  0  0  0  0
    2.7470  -26.0860   21.0010 C   0  0  0  0  0  0  0  0  0  0  0  0
    3.9470  -26.0640   21.6780 C   0  0  0  0  0  0  0  0  0  0  0  0
    4.2730  -23.4060   20.1470 C   0  0  0  0  0  0  0  0  0  0  0  0
    4.3900  -22.1060   19.8610 N   0  0  0  0  0  0  0  0  0  0  0  0
  1  2  1  0
  3  2  1  1
  3  4  1  0
  4  5  1  0
  3  6  1  0
  6  7  1  0
  7  8  2  0
  8  9  1  0
  9 10  2  0
 10 11  1  0
 11 12  1  0
 12 13  1  0
 13 14  2  0
 14 15  1  0
 15 16  1  0
 15 17  1  0
 11 18  2  0
 18 19  1  0
 19 20  1  0
 20 21  2  0
 21 22  1  0
 22 23  2  0
  8 24  1  0
 24 25  2  0
 25  6  1  0
 23  9  1  0
 17 12  2  0
 23 19  1  0
M  END
$$$$
