NGCBWFOLJZBGAA-UHFFFAOYSA-N_5U3Q_m7
     RDKit          3D

 29 31  0  0  0  0  0  0  0  0999 V2000
   49.5360  -33.6840  107.5390 C   0  0  0  0  0  0  0  0  0  0  0  0
   48.5190  -34.7890  107.2750 C   0  0  0  0  0  0  0  0  0  0  0  0
   48.7890  -35.4480  105.9260 C   0  0  0  0  0  0  0  0  0  0  0  0
   48.6670  -35.7550  108.3180 O   0  0  0  0  0  0  0  0  0  0  0  0
   47.4380  -36.3140  108.7850 C   0  0  1  0  0  0  0  0  0  0  0  0
   47.5950  -37.8450  108.8580 C   0  0  0  0  0  0  0  0  0  0  0  0
   46.5960  -38.6310  108.0370 C   0  0  0  0  0  0  0  0  0  0  0  0
   45.3630  -38.0650  107.6830 C   0  0  0  0  0  0  0  0  0  0  0  0
   44.4320  -38.7870  106.9290 C   0  0  0  0  0  0  0  0  0  0  0  0
   44.7210  -40.0880  106.5170 C   0  0  0  0  0  0  0  0  0  0  0  0
   43.9080  -40.9040  105.7810 O   0  0  0  0  0  0  0  0  0  0  0  0
   42.7170  -40.3220  105.2410 C   0  0  0  0  0  0  0  0  0  0  0  0
   42.8780  -40.0140  103.7910 C   0  0  0  0  0  0  0  0  0  0  0  0
   42.7160  -38.7800  103.2920 N   0  0  0  0  0  0  0  0  0  0  0  0
   42.9570  -38.9550  101.9280 O   0  0  0  0  0  0  0  0  0  0  0  0
   43.2300  -40.2820  101.7420 C   0  0  0  0  0  0  0  0  0  0  0  0
   43.5220  -40.7190  100.3830 C   0  0  0  0  0  0  0  0  0  0  0  0
   42.8000  -40.1680   99.3080 C   0  0  0  0  0  0  0  0  0  0  0  0
   43.0540  -40.5640   97.9910 C   0  0  0  0  0  0  0  0  0  0  0  0
   44.0340  -41.5170   97.7320 C   0  0  0  0  0  0  0  0  0  0  0  0
   44.7500  -42.0650   98.7900 C   0  0  0  0  0  0  0  0  0  0  0  0
   45.6940  -42.9810   98.5410 F   0  0  0  0  0  0  0  0  0  0  0  0
   44.5050  -41.6780  100.1050 C   0  0  0  0  0  0  0  0  0  0  0  0
   43.1790  -40.9780  102.8570 N   0  0  0  0  0  0  0  0  0  0  0  0
   45.9470  -40.6560  106.8700 C   0  0  0  0  0  0  0  0  0  0  0  0
   46.8780  -39.9360  107.6230 C   0  0  0  0  0  0  0  0  0  0  0  0
   46.8980  -35.7970  110.1270 C   0  0  0  0  0  0  0  0  0  0  0  0
   45.8620  -36.1650  110.6660 O   0  0  0  0  0  0  0  0  0  0  0  0
   47.6570  -34.8480  110.7090 O   0  0  0  0  0  0  0  0  0  0  0  0
  1  2  1  0
  2  3  1  0
  2  4  1  0
  4  5  1  0
  5  6  1  1
  6  7  1  0
  7  8  2  0
  8  9  1  0
  9 10  2  0
 10 11  1  0
 11 12  1  0
 12 13  1  0
 13 14  2  0
 14 15  1  0
 15 16  1  0
 16 17  1  0
 17 18  2  0
 18 19  1  0
 19 20  2  0
 20 21  1  0
 21 22  1  0
 21 23  2  0
 16 24  2  0
 10 25  1  0
 25 26  2  0
  5 27  1  0
 27 28  2  0
 27 29  1  0
 26  7  1  0
 24 13  1  0
 23 17  1  0
M  END
$$$$
