NGEQQUWHBWTKEQ-MRXNPFEDSA-N_8BXH_m4
     RDKit          3D

 40 44  0  0  0  0  0  0  0  0999 V2000
   -5.8440   17.6610   20.8930 C   0  0  0  0  0  0  0  0  0  0  0  0
   -6.1770   17.6340   19.3980 C   0  0  2  0  0  0  0  0  0  0  0  0
   -7.6750   17.2810   19.1770 C   0  0  0  0  0  0  0  0  0  0  0  0
   -8.3670   17.8650   18.3450 O   0  0  0  0  0  0  0  0  0  0  0  0
   -8.0650   16.2030   19.9490 N   0  0  0  0  0  0  0  0  0  0  0  0
   -9.2680   15.4750   19.9460 C   0  0  0  0  0  0  0  0  0  0  0  0
   -9.1620   14.0840   19.7660 C   0  0  0  0  0  0  0  0  0  0  0  0
  -10.2850   13.2620   19.7140 C   0  0  0  0  0  0  0  0  0  0  0  0
  -11.5630   13.8070   19.8370 C   0  0  0  0  0  0  0  0  0  0  0  0
  -11.7180   15.1960   20.0270 C   0  0  0  0  0  0  0  0  0  0  0  0
  -12.8610   16.0560   20.1730 C   0  0  0  0  0  0  0  0  0  0  0  0
  -14.2800   15.7210   20.1770 C   0  0  0  0  0  0  0  0  0  0  0  0
  -15.0860   16.6090   20.8100 N   0  0  0  0  0  0  0  0  0  0  0  0
  -16.3990   16.3480   20.8560 C   0  0  0  0  0  0  0  0  0  0  0  0
  -17.2890   17.1970   21.5010 N   0  0  0  0  0  0  0  0  0  0  0  0
  -18.2550   18.1130   21.0610 C   0  0  0  0  0  0  0  0  0  0  0  0
  -18.0610   19.0030   19.9980 C   0  0  0  0  0  0  0  0  0  0  0  0
  -19.0550   19.9150   19.6230 C   0  0  0  0  0  0  0  0  0  0  0  0
  -20.2680   19.9510   20.3070 C   0  0  0  0  0  0  0  0  0  0  0  0
  -20.4790   19.0650   21.3640 C   0  0  0  0  0  0  0  0  0  0  0  0
  -22.0030   19.0860   22.2480 S   0  0  0  0  0  0  0  0  0  0  0  0
  -22.8940   20.4930   21.6410 C   0  0  0  0  0  0  0  0  0  0  0  0
  -21.6840   19.3690   23.6370 O   0  0  0  0  0  0  0  0  0  0  0  0
  -22.7230   17.8790   21.8910 O   0  0  0  0  0  0  0  0  0  0  0  0
  -19.4880   18.1630   21.7340 C   0  0  0  0  0  0  0  0  0  0  0  0
  -19.6890   17.3150   22.7570 F   0  0  0  0  0  0  0  0  0  0  0  0
  -16.9520   15.2490   20.3130 N   0  0  0  0  0  0  0  0  0  0  0  0
  -16.1230   14.3850   19.6940 C   0  0  0  0  0  0  0  0  0  0  0  0
  -14.7690   14.5740   19.5940 C   0  0  0  0  0  0  0  0  0  0  0  0
  -14.0020   13.6630   18.9810 F   0  0  0  0  0  0  0  0  0  0  0  0
  -12.3730   17.3360   20.3480 C   0  0  0  0  0  0  0  0  0  0  0  0
  -11.0080   17.2830   20.2870 N   0  0  0  0  0  0  0  0  0  0  0  0
  -10.5670   15.9940   20.0830 C   0  0  0  0  0  0  0  0  0  0  0  0
   -5.3200   16.7620   18.5410 N   0  0  0  0  0  0  0  0  0  0  0  0
   -4.2890   16.0210   19.2990 C   0  0  0  0  0  0  0  0  0  0  0  0
   -3.4320   15.1160   18.3780 C   0  0  0  0  0  0  0  0  0  0  0  0
   -2.7790   15.8910   17.3060 N   0  0  0  0  0  0  0  0  0  0  0  0
   -2.0150   15.0140   16.4210 C   0  0  0  0  0  0  0  0  0  0  0  0
   -3.7920   16.6490   16.5500 C   0  0  0  0  0  0  0  0  0  0  0  0
   -4.6610   17.5400   17.4690 C   0  0  0  0  0  0  0  0  0  0  0  0
  2  1  1  1
  2  3  1  0
  3  4  2  0
  3  5  1  0
  5  6  1  0
  6  7  2  0
  7  8  1  0
  8  9  2  0
  9 10  1  0
 10 11  1  0
 11 12  1  0
 12 13  2  0
 13 14  1  0
 14 15  1  0
 15 16  1  0
 16 17  2  0
 17 18  1  0
 18 19  2  0
 19 20  1  0
 20 21  1  0
 21 22  1  0
 21 23  2  0
 21 24  2  0
 20 25  2  0
 25 26  1  0
 14 27  2  0
 27 28  1  0
 28 29  2  0
 29 30  1  0
 11 31  2  0
 31 32  1  0
 32 33  1  0
  2 34  1  0
 34 35  1  0
 35 36  1  0
 36 37  1  0
 37 38  1  0
 37 39  1  0
 39 40  1  0
 33  6  1  0
 40 34  1  0
 33 10  2  0
 29 12  1  0
 25 16  1  0
M  END
$$$$
