NGKDXIDMJWVNHU-UHFFFAOYSA-N_3RCD_m2
     RDKit          3D

 33 37  0  0  0  0  0  0  0  0999 V2000
   12.2640    1.3260   32.9020 Cl  0  0  0  0  0  0  0  0  0  0  0  0
   11.9550    1.5590   31.2150 C   0  0  0  0  0  0  0  0  0  0  0  0
   13.0480    1.5630   30.3410 C   0  0  0  0  0  0  0  0  0  0  0  0
   12.8750    1.7560   28.9630 C   0  0  0  0  0  0  0  0  0  0  0  0
   14.0070    1.7590   28.1360 N   0  0  0  0  0  0  0  0  0  0  0  0
   14.9590    0.7690   27.8050 C   0  0  0  0  0  0  0  0  0  0  0  0
   14.8420   -0.4540   28.3580 N   0  0  0  0  0  0  0  0  0  0  0  0
   15.7530   -1.3660   28.0190 C   0  0  0  0  0  0  0  0  0  0  0  0
   16.7770   -1.1800   27.1840 N   0  0  0  0  0  0  0  0  0  0  0  0
   16.8960    0.0330   26.6410 C   0  0  0  0  0  0  0  0  0  0  0  0
   17.9500    0.2310   25.7580 C   0  0  0  0  0  0  0  0  0  0  0  0
   18.1610    1.4510   25.1160 C   0  0  0  0  0  0  0  0  0  0  0  0
   17.3070    2.5130   25.3720 C   0  0  0  0  0  0  0  0  0  0  0  0
   16.2600    2.3500   26.2830 C   0  0  0  0  0  0  0  0  0  0  0  0
   15.3910    3.3930   26.5220 O   0  0  0  0  0  0  0  0  0  0  0  0
   14.8140    3.9620   25.3320 C   0  0  0  0  0  0  0  0  0  0  0  0
   14.3870    5.3980   25.6410 C   0  0  0  0  0  0  0  0  0  0  0  0
   13.5950    5.9730   24.4790 C   0  0  0  0  0  0  0  0  0  0  0  0
   12.4670    5.1470   24.1850 O   0  0  0  0  0  0  0  0  0  0  0  0
   12.8400    3.8230   23.8070 C   0  0  0  0  0  0  0  0  0  0  0  0
   13.5930    3.1360   24.9340 C   0  0  0  0  0  0  0  0  0  0  0  0
   16.0150    1.0910   26.9130 C   0  0  0  0  0  0  0  0  0  0  0  0
   11.5700    1.9270   28.4930 C   0  0  0  0  0  0  0  0  0  0  0  0
   10.4700    1.9260   29.3640 C   0  0  0  0  0  0  0  0  0  0  0  0
   10.6550    1.7560   30.7350 C   0  0  0  0  0  0  0  0  0  0  0  0
    9.6350    1.7300   31.6480 O   0  0  0  0  0  0  0  0  0  0  0  0
    8.3050    1.7630   31.1200 C   0  0  0  0  0  0  0  0  0  0  0  0
    7.7090    3.1460   31.2680 C   0  0  0  0  0  0  0  0  0  0  0  0
    7.7340    3.8100   32.4950 C   0  0  0  0  0  0  0  0  0  0  0  0
    7.2070    5.0950   32.5780 C   0  0  0  0  0  0  0  0  0  0  0  0
    6.6790    5.6910   31.4400 C   0  0  0  0  0  0  0  0  0  0  0  0
    6.7050    4.9730   30.2560 C   0  0  0  0  0  0  0  0  0  0  0  0
    7.2110    3.7250   30.1430 N   0  0  0  0  0  0  0  0  0  0  0  0
  1  2  1  0
  2  3  2  0
  3  4  1  0
  4  5  1  0
  5  6  1  0
  6  7  2  0
  7  8  1  0
  8  9  2  0
  9 10  1  0
 10 11  2  0
 11 12  1  0
 12 13  2  0
 13 14  1  0
 14 15  1  0
 15 16  1  0
 16 17  1  0
 17 18  1  0
 18 19  1  0
 19 20  1  0
 20 21  1  0
 14 22  2  0
  4 23  2  0
 23 24  1  0
 24 25  2  0
 25 26  1  0
 26 27  1  0
 27 28  1  0
 28 29  2  0
 29 30  1  0
 30 31  2  0
 31 32  1  0
 32 33  2  0
 25  2  1  0
 33 28  1  0
 22  6  1  0
 22 10  1  0
 21 16  1  0
M  END
$$$$
