NIDDHYAQKFHAMY-GZTJUZNOSA-N_6LXA_m5
     RDKit          3D

 21 22  0  0  0  0  0  0  0  0999 V2000
    9.8800   11.8540   -7.6040 O   0  0  0  0  0  0  0  0  0  0  0  0
   10.5370   10.9060   -8.0020 C   0  0  0  0  0  0  0  0  0  0  0  0
   11.2850   10.1990   -7.1240 O   0  0  0  0  0  0  0  0  0  0  0  0
   10.6270   10.3580   -9.4250 C   0  0  2  0  0  0  0  0  0  0  0  0
   10.5080   11.5270  -10.4120 C   0  0  0  0  0  0  0  0  0  0  0  0
   10.7500   11.0900  -11.8400 C   0  0  0  0  0  0  0  0  0  0  0  0
   11.9020   10.3660  -12.1740 C   0  0  0  0  0  0  0  0  0  0  0  0
   12.1110    9.9390  -13.4850 C   0  0  0  0  0  0  0  0  0  0  0  0
   11.1710   10.2270  -14.4720 C   0  0  0  0  0  0  0  0  0  0  0  0
   10.0200   10.9420  -14.1490 C   0  0  0  0  0  0  0  0  0  0  0  0
    9.8090   11.3710  -12.8380 C   0  0  0  0  0  0  0  0  0  0  0  0
    9.5350    9.4530   -9.6670 O   0  0  0  0  0  0  0  0  0  0  0  0
    9.9720    8.1810   -9.9080 C   0  0  0  0  0  0  0  0  0  0  0  0
   10.1390    7.7220  -11.2140 C   0  0  0  0  0  0  0  0  0  0  0  0
   10.5520    6.4070  -11.4370 C   0  0  0  0  0  0  0  0  0  0  0  0
   10.7780    5.5570  -10.3490 C   0  0  0  0  0  0  0  0  0  0  0  0
   11.2130    4.1730  -10.6110 C   0  0  0  0  0  0  0  0  0  0  0  0
   10.5010    3.1460  -10.2660 N   0  0  0  0  0  0  0  0  0  0  0  0
   11.1750    1.9790  -10.6460 O   0  0  0  0  0  0  0  0  0  0  0  0
   10.5860    6.0170   -9.0410 C   0  0  0  0  0  0  0  0  0  0  0  0
   10.1730    7.3310   -8.8220 C   0  0  0  0  0  0  0  0  0  0  0  0
  1  2  2  0
  2  3  1  0
  2  4  1  0
  4  5  1  6
  5  6  1  0
  6  7  2  0
  7  8  1  0
  8  9  2  0
  9 10  1  0
 10 11  2  0
  4 12  1  0
 12 13  1  0
 13 14  2  0
 14 15  1  0
 15 16  2  0
 16 17  1  0
 17 18  2  0
 18 19  1  0
 16 20  1  0
 20 21  2  0
 11  6  1  0
 21 13  1  0
M  END
$$$$
