NIPHPZHHUCNETC-UHFFFAOYSA-N_6LXA_m8
     RDKit          3D

 37 40  0  0  0  0  0  0  0  0999 V2000
    4.7230    5.1200   -2.2570 O   0  0  0  0  0  0  0  0  0  0  0  0
    3.5760    5.1250   -2.6710 C   0  0  0  0  0  0  0  0  0  0  0  0
    2.6590    4.2950   -2.1220 O   0  0  0  0  0  0  0  0  0  0  0  0
    2.9790    5.9770   -3.7750 C   0  0  0  0  0  0  0  0  0  0  0  0
    3.7320    5.8170   -4.9700 O   0  0  0  0  0  0  0  0  0  0  0  0
    4.5360    6.8560   -5.3600 C   0  0  0  0  0  0  0  0  0  0  0  0
    4.1920    8.2060   -5.2680 C   0  0  0  0  0  0  0  0  0  0  0  0
    5.0820    9.1910   -5.6980 C   0  0  0  0  0  0  0  0  0  0  0  0
    6.3200    8.8360   -6.2260 C   0  0  0  0  0  0  0  0  0  0  0  0
    6.6850    7.4870   -6.3300 C   0  0  0  0  0  0  0  0  0  0  0  0
    5.7960    6.4910   -5.8750 C   0  0  0  0  0  0  0  0  0  0  0  0
    6.1790    5.0330   -6.0130 C   0  0  0  0  0  0  0  0  0  0  0  0
    7.6920    4.8390   -6.0910 C   0  0  0  0  0  0  0  0  0  0  0  0
    8.2390    5.6960   -7.1650 N   0  0  0  0  0  0  0  0  0  0  0  0
    9.7210    5.2460   -7.8450 S   0  0  0  0  0  0  0  0  0  0  0  0
    9.5390    4.0010   -8.5590 O   0  0  0  0  0  0  0  0  0  0  0  0
   10.7470    5.3800   -6.8310 O   0  0  0  0  0  0  0  0  0  0  0  0
   10.0230    6.5130   -9.0620 C   0  0  0  0  0  0  0  0  0  0  0  0
   10.0350    6.1800  -10.4210 C   0  0  0  0  0  0  0  0  0  0  0  0
   10.2540    7.1760  -11.3720 C   0  0  0  0  0  0  0  0  0  0  0  0
   10.4440    8.5020  -10.9700 C   0  0  0  0  0  0  0  0  0  0  0  0
   10.3950    8.8390   -9.6090 C   0  0  0  0  0  0  0  0  0  0  0  0
   10.6040   10.2350   -9.1320 C   0  0  0  0  0  0  0  0  0  0  0  0
   10.2160   11.1490   -9.8500 O   0  0  0  0  0  0  0  0  0  0  0  0
   11.2500   10.3510   -7.9180 N   0  0  0  0  0  0  0  0  0  0  0  0
   11.5640   11.5310   -7.1950 C   0  0  0  0  0  0  0  0  0  0  0  0
   12.6560   12.3410   -7.5300 C   0  0  0  0  0  0  0  0  0  0  0  0
   12.9470   13.4980   -6.7990 C   0  0  0  0  0  0  0  0  0  0  0  0
   12.1460   13.8600   -5.7220 C   0  0  0  0  0  0  0  0  0  0  0  0
   12.5070   15.2830   -4.8270 Cl  0  0  0  0  0  0  0  0  0  0  0  0
   11.0510   13.0780   -5.3670 C   0  0  0  0  0  0  0  0  0  0  0  0
   10.7530   11.9140   -6.0980 C   0  0  0  0  0  0  0  0  0  0  0  0
    9.5710   11.0930   -5.7130 C   0  0  0  0  0  0  0  0  0  0  0  0
    8.7590   10.6190   -6.4890 O   0  0  0  0  0  0  0  0  0  0  0  0
    9.4620   10.8990   -4.3880 O   0  0  0  0  0  0  0  0  0  0  0  0
   10.1840    7.8400   -8.6510 C   0  0  0  0  0  0  0  0  0  0  0  0
    8.0470    7.1380   -6.8980 C   0  0  0  0  0  0  0  0  0  0  0  0
  1  2  2  0
  2  3  1  0
  2  4  1  0
  4  5  1  0
  5  6  1  0
  6  7  2  0
  7  8  1  0
  8  9  2  0
  9 10  1  0
 10 11  2  0
 11 12  1  0
 12 13  1  0
 13 14  1  0
 14 15  1  0
 15 16  2  0
 15 17  2  0
 15 18  1  0
 18 19  2  0
 19 20  1  0
 20 21  2  0
 21 22  1  0
 22 23  1  0
 23 24  2  0
 23 25  1  0
 25 26  1  0
 26 27  2  0
 27 28  1  0
 28 29  2  0
 29 30  1  0
 29 31  1  0
 31 32  2  0
 32 33  1  0
 33 34  2  0
 33 35  1  0
 22 36  2  0
 14 37  1  0
 11  6  1  0
 36 18  1  0
 37 10  1  0
 32 26  1  0
M  END
$$$$
