NLUCFDWSIZAJOW-UHFFFAOYSA-N_4EY7_m4
     RDKit          3D

 28 31  0  0  0  0  0  0  0  0999 V2000
  -14.1490  -43.9160   23.9180 O   0  0  0  0  0  0  0  0  0  0  0  0
  -14.3210  -42.8910   24.5710 C   0  0  0  0  0  0  0  0  0  0  0  0
  -14.9500  -41.6420   23.9330 C   0  0  0  0  0  0  0  0  0  0  0  0
  -16.1450  -42.0110   23.1400 N   0  0  0  0  0  0  0  0  0  0  0  0
  -16.9050  -43.0530   23.8310 C   0  0  0  0  0  0  0  0  0  0  0  0
  -18.0330  -42.4360   24.6190 C   0  0  0  0  0  0  0  0  0  0  0  0
  -19.1060  -41.8080   23.9700 C   0  0  0  0  0  0  0  0  0  0  0  0
  -20.1490  -41.2610   24.7150 C   0  0  0  0  0  0  0  0  0  0  0  0
  -21.1650  -40.6630   24.0780 F   0  0  0  0  0  0  0  0  0  0  0  0
  -20.1560  -41.3280   26.1000 C   0  0  0  0  0  0  0  0  0  0  0  0
  -19.1000  -41.9560   26.7410 C   0  0  0  0  0  0  0  0  0  0  0  0
  -19.0940  -42.0330   28.0790 F   0  0  0  0  0  0  0  0  0  0  0  0
  -18.0450  -42.5110   26.0210 C   0  0  0  0  0  0  0  0  0  0  0  0
  -13.9600  -42.6760   25.8890 N   0  0  0  0  0  0  0  0  0  0  0  0
  -13.3320  -43.5610   26.7810 C   0  0  0  0  0  0  0  0  0  0  0  0
  -13.7680  -44.8660   27.0180 C   0  0  0  0  0  0  0  0  0  0  0  0
  -13.0900  -45.6920   27.9240 C   0  0  0  0  0  0  0  0  0  0  0  0
  -11.9670  -45.2320   28.6080 C   0  0  0  0  0  0  0  0  0  0  0  0
  -11.3200  -46.0970   29.5120 N   0  0  0  0  0  0  0  0  0  0  0  0
  -10.2780  -45.6290   30.1060 C   0  0  0  0  0  0  0  0  0  0  0  0
   -9.7710  -44.3590   29.9270 N   0  0  0  0  0  0  0  0  0  0  0  0
  -10.3410  -43.4320   29.0910 C   0  0  0  0  0  0  0  0  0  0  0  0
   -9.9260  -42.2890   28.9390 O   0  0  0  0  0  0  0  0  0  0  0  0
  -11.5340  -43.9220   28.3640 C   0  0  0  0  0  0  0  0  0  0  0  0
  -12.2070  -43.0880   27.4610 C   0  0  0  0  0  0  0  0  0  0  0  0
   -8.6160  -44.1290   30.7530 C   0  0  0  0  0  0  0  0  0  0  0  0
   -8.1590  -45.5320   31.1190 C   0  0  0  0  0  0  0  0  0  0  0  0
   -9.4440  -46.3570   31.1140 C   0  0  0  0  0  0  0  0  0  0  0  0
  1  2  2  0
  2  3  1  0
  3  4  1  0
  4  5  1  0
  5  6  1  0
  6  7  2  0
  7  8  1  0
  8  9  1  0
  8 10  2  0
 10 11  1  0
 11 12  1  0
 11 13  2  0
  2 14  1  0
 14 15  1  0
 15 16  2  0
 16 17  1  0
 17 18  2  0
 18 19  1  0
 19 20  2  0
 20 21  1  0
 21 22  1  0
 22 23  2  0
 22 24  1  0
 24 25  2  0
 21 26  1  0
 26 27  1  0
 27 28  1  0
 13  6  1  0
 25 15  1  0
 24 18  1  0
 28 20  1  0
M  END
$$$$
