NNFDRCGXLJTASH-UHFFFAOYSA-N_3RCD_m6
     RDKit          3D

 38 42  0  0  0  0  0  0  0  0999 V2000
   10.4660    1.8730   29.8300 C   0  0  0  0  0  0  0  0  0  0  0  0
   11.7510    1.9840   29.0610 C   0  0  0  0  0  0  0  0  0  0  0  0
   12.5850    0.8640   28.9240 C   0  0  0  0  0  0  0  0  0  0  0  0
   13.7980    0.9630   28.2420 C   0  0  0  0  0  0  0  0  0  0  0  0
   14.1770    2.1900   27.6940 C   0  0  0  0  0  0  0  0  0  0  0  0
   15.7160    2.3360   26.8130 S   0  0  0  0  0  0  0  0  0  0  0  0
   16.7470    2.5810   27.8060 O   0  0  0  0  0  0  0  0  0  0  0  0
   15.8220    1.2070   25.9070 O   0  0  0  0  0  0  0  0  0  0  0  0
   15.5600    3.7940   25.8090 C   0  0  0  0  0  0  0  0  0  0  0  0
   16.2300    4.9650   26.1670 C   0  0  0  0  0  0  0  0  0  0  0  0
   16.0630    6.1140   25.3940 C   0  0  0  0  0  0  0  0  0  0  0  0
   15.2270    6.1010   24.2630 C   0  0  0  0  0  0  0  0  0  0  0  0
   14.9910    7.3690   23.4320 C   0  0  1  0  0  0  0  0  0  0  0  0
   15.6970    7.2610   22.0740 C   0  0  0  0  0  0  0  0  0  0  0  0
   17.1770    7.0270   22.0460 C   0  0  0  0  0  0  0  0  0  0  0  0
   17.9690    7.8730   21.6340 O   0  0  0  0  0  0  0  0  0  0  0  0
   17.7070    5.7210   22.4960 C   0  0  0  0  0  0  0  0  0  0  0  0
   17.2330    4.5200   21.9590 C   0  0  0  0  0  0  0  0  0  0  0  0
   17.7620    3.3090   22.4040 C   0  0  0  0  0  0  0  0  0  0  0  0
   18.7470    3.2970   23.3940 C   0  0  0  0  0  0  0  0  0  0  0  0
   19.2010    4.4950   23.9480 C   0  0  0  0  0  0  0  0  0  0  0  0
   18.6760    5.7090   23.5050 C   0  0  0  0  0  0  0  0  0  0  0  0
   14.9980    7.2770   20.9100 C   0  0  0  0  0  0  0  0  0  0  0  0
   15.5740    7.1090   19.6890 N   0  0  0  0  0  0  0  0  0  0  0  0
   13.6340    7.4570   20.9590 N   0  0  0  0  0  0  0  0  0  0  0  0
   12.8970    7.6800   22.1030 C   0  0  0  0  0  0  0  0  0  0  0  0
   13.5080    7.6740   23.3030 C   0  0  0  0  0  0  0  0  0  0  0  0
   12.7500    8.0640   24.5220 C   0  0  0  0  0  0  0  0  0  0  0  0
   13.3430    8.2820   25.5790 O   0  0  0  0  0  0  0  0  0  0  0  0
   11.2540    8.2920   24.4200 C   0  0  0  0  0  0  0  0  0  0  0  0
   10.6050    7.6000   23.2100 C   0  0  0  0  0  0  0  0  0  0  0  0
    9.1680    8.1250   23.0350 C   0  0  0  0  0  0  0  0  0  0  0  0
   10.5310    6.0760   23.4390 C   0  0  0  0  0  0  0  0  0  0  0  0
   11.4190    7.9260   21.9390 C   0  0  0  0  0  0  0  0  0  0  0  0
   14.5910    4.9010   23.9000 C   0  0  0  0  0  0  0  0  0  0  0  0
   14.7550    3.7490   24.6680 C   0  0  0  0  0  0  0  0  0  0  0  0
   13.3680    3.3200   27.8400 C   0  0  0  0  0  0  0  0  0  0  0  0
   12.1570    3.2130   28.5260 C   0  0  0  0  0  0  0  0  0  0  0  0
  1  2  1  0
  2  3  2  0
  3  4  1  0
  4  5  2  0
  5  6  1  0
  6  7  2  0
  6  8  2  0
  6  9  1  0
  9 10  2  0
 10 11  1  0
 11 12  2  0
 13 12  1  6
 13 14  1  0
 14 15  1  0
 15 16  2  0
 15 17  1  0
 17 18  2  0
 18 19  1  0
 19 20  2  0
 20 21  1  0
 21 22  2  0
 14 23  2  0
 23 24  1  0
 23 25  1  0
 25 26  1  0
 26 27  2  0
 27 28  1  0
 28 29  2  0
 28 30  1  0
 30 31  1  0
 31 32  1  0
 31 33  1  0
 31 34  1  0
 12 35  1  0
 35 36  2  0
  5 37  1  0
 37 38  2  0
 38  2  1  0
 36  9  1  0
 27 13  1  0
 22 17  1  0
 34 26  1  0
M  END
$$$$
