NPCOVXRHNOWSPC-UHFFFAOYSA-N_9V8H_m1
     RDKit          3D

 36 39  0  0  0  0  0  0  0  0999 V2000
   -1.7200    0.1380  -21.9590 C   0  0  0  0  0  0  0  0  0  0  0  0
   -2.8260   -0.8210  -22.3810 C   0  0  0  0  0  0  0  0  0  0  0  0
   -3.1960   -1.8560  -21.3070 C   0  0  2  0  0  0  0  0  0  0  0  0
   -4.0750   -2.8080  -21.9080 O   0  0  0  0  0  0  0  0  0  0  0  0
   -4.4340   -3.8780  -21.1350 C   0  0  0  0  0  0  0  0  0  0  0  0
   -3.5420   -4.7750  -20.5550 C   0  0  0  0  0  0  0  0  0  0  0  0
   -4.0230   -5.8350  -19.7830 C   0  0  0  0  0  0  0  0  0  0  0  0
   -5.3950   -5.9890  -19.5800 C   0  0  0  0  0  0  0  0  0  0  0  0
   -6.3030   -5.0730  -20.1270 C   0  0  0  0  0  0  0  0  0  0  0  0
   -7.7920   -5.2310  -19.9090 C   0  0  0  0  0  0  0  0  0  0  0  0
   -8.1940   -6.6300  -19.9530 N   0  0  0  0  0  0  0  0  0  0  0  0
   -8.9360   -7.1880  -18.8270 C   0  0  0  0  0  0  0  0  0  0  0  0
  -10.4510   -7.0960  -19.0290 C   0  0  0  0  0  0  0  0  0  0  0  0
  -11.2090   -8.3100  -18.4980 C   0  0  0  0  0  0  0  0  0  0  0  0
  -11.2630   -8.2350  -17.0740 O   0  0  0  0  0  0  0  0  0  0  0  0
  -11.9570   -7.1870  -16.5260 C   0  0  0  0  0  0  0  0  0  0  0  0
  -11.3970   -5.9560  -16.1760 C   0  0  0  0  0  0  0  0  0  0  0  0
  -12.1890   -4.9460  -15.6210 C   0  0  0  0  0  0  0  0  0  0  0  0
  -13.5550   -5.1480  -15.4150 C   0  0  0  0  0  0  0  0  0  0  0  0
  -14.3990   -4.0750  -14.7940 C   0  0  0  0  0  0  0  0  0  0  0  0
  -14.1130   -6.3900  -15.7430 C   0  0  0  0  0  0  0  0  0  0  0  0
  -13.3250   -7.4110  -16.3000 C   0  0  0  0  0  0  0  0  0  0  0  0
  -13.9570   -8.7300  -16.6500 C   0  0  0  0  0  0  0  0  0  0  0  0
   -8.0170   -7.3850  -21.0600 C   0  0  0  0  0  0  0  0  0  0  0  0
   -7.3310   -8.5050  -21.1820 N   0  0  0  0  0  0  0  0  0  0  0  0
   -7.4850   -8.8510  -22.4980 C   0  0  0  0  0  0  0  0  0  0  0  0
   -7.0140   -9.9510  -23.2250 C   0  0  0  0  0  0  0  0  0  0  0  0
   -7.3460  -10.0330  -24.5860 C   0  0  0  0  0  0  0  0  0  0  0  0
   -8.1200   -9.0430  -25.2040 C   0  0  0  0  0  0  0  0  0  0  0  0
   -8.5940   -7.9350  -24.4900 C   0  0  0  0  0  0  0  0  0  0  0  0
   -8.2490   -7.8980  -23.1450 C   0  0  0  0  0  0  0  0  0  0  0  0
   -8.5900   -6.9490  -22.2290 O   0  0  0  0  0  0  0  0  0  0  0  0
   -5.8050   -4.0140  -20.9010 C   0  0  0  0  0  0  0  0  0  0  0  0
   -3.8220   -1.1720  -20.0900 C   0  0  0  0  0  0  0  0  0  0  0  0
   -4.6570   -0.2830  -20.0790 O   0  0  0  0  0  0  0  0  0  0  0  0
   -3.3810   -1.6830  -18.9180 O   0  0  0  0  0  0  0  0  0  0  0  0
  1  2  1  0
  3  2  1  6
  3  4  1  0
  4  5  1  0
  5  6  2  0
  6  7  1  0
  7  8  2  0
  8  9  1  0
  9 10  1  0
 10 11  1  0
 11 12  1  0
 12 13  1  0
 13 14  1  0
 14 15  1  0
 15 16  1  0
 16 17  2  0
 17 18  1  0
 18 19  2  0
 19 20  1  0
 19 21  1  0
 21 22  2  0
 22 23  1  0
 11 24  1  0
 24 25  2  0
 25 26  1  0
 26 27  2  0
 27 28  1  0
 28 29  2  0
 29 30  1  0
 30 31  2  0
 31 32  1  0
  9 33  2  0
  3 34  1  0
 34 35  2  0
 34 36  1  0
 33  5  1  0
 22 16  1  0
 32 24  1  0
 31 26  1  0
M  END
$$$$
