NPCOVXRHNOWSPC-UHFFFAOYSA-N_9V8H_m3
     RDKit          3D

 36 39  0  0  0  0  0  0  0  0999 V2000
   -2.8110   -0.5770  -22.4740 C   0  0  0  0  0  0  0  0  0  0  0  0
   -3.9620   -1.5640  -22.3230 C   0  0  0  0  0  0  0  0  0  0  0  0
   -3.9980   -2.2740  -20.9610 C   0  0  2  0  0  0  0  0  0  0  0  0
   -5.0750   -3.2140  -20.9910 O   0  0  0  0  0  0  0  0  0  0  0  0
   -4.7620   -4.5080  -20.6820 C   0  0  0  0  0  0  0  0  0  0  0  0
   -3.5620   -4.9220  -20.1110 C   0  0  0  0  0  0  0  0  0  0  0  0
   -3.3500   -6.2750  -19.8390 C   0  0  0  0  0  0  0  0  0  0  0  0
   -4.3440   -7.2120  -20.1230 C   0  0  0  0  0  0  0  0  0  0  0  0
   -5.5710   -6.8070  -20.6650 C   0  0  0  0  0  0  0  0  0  0  0  0
   -6.6550   -7.8160  -20.9740 C   0  0  0  0  0  0  0  0  0  0  0  0
   -7.9590   -7.1800  -21.1020 N   0  0  0  0  0  0  0  0  0  0  0  0
   -8.4170   -6.7690  -22.4250 C   0  0  0  0  0  0  0  0  0  0  0  0
   -8.4510   -7.9380  -23.4150 C   0  0  0  0  0  0  0  0  0  0  0  0
   -9.1680   -7.6060  -24.7210 C   0  0  0  0  0  0  0  0  0  0  0  0
   -9.2120   -8.7770  -25.5350 O   0  0  0  0  0  0  0  0  0  0  0  0
   -8.8350   -8.6450  -26.8470 C   0  0  0  0  0  0  0  0  0  0  0  0
   -9.6040   -8.0320  -27.8390 C   0  0  0  0  0  0  0  0  0  0  0  0
   -9.1320   -7.9460  -29.1530 C   0  0  0  0  0  0  0  0  0  0  0  0
   -7.8820   -8.4650  -29.4930 C   0  0  0  0  0  0  0  0  0  0  0  0
   -7.3880   -8.3980  -30.9080 C   0  0  0  0  0  0  0  0  0  0  0  0
   -7.1200   -9.1000  -28.5040 C   0  0  0  0  0  0  0  0  0  0  0  0
   -7.5860   -9.1930  -27.1820 C   0  0  0  0  0  0  0  0  0  0  0  0
   -6.7400   -9.8740  -26.1420 C   0  0  0  0  0  0  0  0  0  0  0  0
   -8.8060   -7.0820  -20.0540 C   0  0  0  0  0  0  0  0  0  0  0  0
   -8.8600   -6.1380  -19.1350 N   0  0  0  0  0  0  0  0  0  0  0  0
   -9.8960   -6.5170  -18.3240 C   0  0  0  0  0  0  0  0  0  0  0  0
  -10.4540   -5.9110  -17.1920 C   0  0  0  0  0  0  0  0  0  0  0  0
  -11.5320   -6.5510  -16.5640 C   0  0  0  0  0  0  0  0  0  0  0  0
  -12.0360   -7.7660  -17.0490 C   0  0  0  0  0  0  0  0  0  0  0  0
  -11.4860   -8.3850  -18.1770 C   0  0  0  0  0  0  0  0  0  0  0  0
  -10.4260   -7.7130  -18.7720 C   0  0  0  0  0  0  0  0  0  0  0  0
   -9.7260   -8.0860  -19.8800 O   0  0  0  0  0  0  0  0  0  0  0  0
   -5.7690   -5.4440  -20.9340 C   0  0  0  0  0  0  0  0  0  0  0  0
   -4.1430   -1.2590  -19.8260 C   0  0  0  0  0  0  0  0  0  0  0  0
   -4.7810   -0.2190  -19.8290 O   0  0  0  0  0  0  0  0  0  0  0  0
   -3.4930   -1.6350  -18.7010 O   0  0  0  0  0  0  0  0  0  0  0  0
  1  2  1  0
  3  2  1  6
  3  4  1  0
  4  5  1  0
  5  6  2  0
  6  7  1  0
  7  8  2  0
  8  9  1  0
  9 10  1  0
 10 11  1  0
 11 12  1  0
 12 13  1  0
 13 14  1  0
 14 15  1  0
 15 16  1  0
 16 17  2  0
 17 18  1  0
 18 19  2  0
 19 20  1  0
 19 21  1  0
 21 22  2  0
 22 23  1  0
 11 24  1  0
 24 25  2  0
 25 26  1  0
 26 27  2  0
 27 28  1  0
 28 29  2  0
 29 30  1  0
 30 31  2  0
 31 32  1  0
  9 33  2  0
  3 34  1  0
 34 35  2  0
 34 36  1  0
 33  5  1  0
 22 16  1  0
 32 24  1  0
 31 26  1  0
M  END
$$$$
