NRBHFTJDRVHSST-WTKPLQERSA-N_3RCD_m4
     RDKit          3D

 26 27  0  0  0  0  0  0  0  0999 V2000
   13.0570    1.5670   32.9950 N   0  0  0  0  0  0  0  0  0  0  0  0
   12.4880    1.3940   31.8640 C   0  0  0  0  0  0  0  0  0  0  0  0
   11.1430    1.1180   31.8340 N   0  0  0  0  0  0  0  0  0  0  0  0
   10.8450    0.9960   30.5530 C   0  0  0  0  0  0  0  0  0  0  0  0
    9.5860    0.7310   30.0880 N   0  0  0  0  0  0  0  0  0  0  0  0
    8.4370    0.5040   30.9530 C   0  0  0  0  0  0  0  0  0  0  0  0
    8.7320   -0.5670   31.9850 C   0  0  0  0  0  0  0  0  0  0  0  0
    8.8520   -2.1670   31.2180 S   0  0  0  0  0  0  0  0  0  0  0  0
    8.6400   -3.1930   32.2140 O   0  0  0  0  0  0  0  0  0  0  0  0
    8.1470   -2.1580   29.9570 O   0  0  0  0  0  0  0  0  0  0  0  0
   10.4360   -2.1800   30.9120 O   0  0  0  0  0  0  0  0  0  0  0  0
   12.0870    1.1980   29.6970 C   0  0  0  0  0  0  0  0  0  0  0  0
   12.1230    1.1160   28.3650 C   0  0  0  0  0  0  0  0  0  0  0  0
   13.3440    1.3170   27.5230 C   0  0  2  0  0  0  0  0  0  0  0  0
   14.3800    0.5850   28.1730 O   0  0  0  0  0  0  0  0  0  0  0  0
   13.7110    2.8150   27.4140 C   0  0  0  0  0  0  0  0  0  0  0  0
   14.4780    3.1460   26.2190 N   0  0  0  0  0  0  0  0  0  0  0  0
   15.8420    3.0020   26.1450 C   0  0  0  0  0  0  0  0  0  0  0  0
   16.4900    2.5070   27.0640 O   0  0  0  0  0  0  0  0  0  0  0  0
   16.4570    3.4530   24.9190 C   0  0  0  0  0  0  0  0  0  0  0  0
   17.5080    2.9590   24.1590 C   0  0  0  0  0  0  0  0  0  0  0  0
   17.6710    3.8190   23.0540 C   0  0  0  0  0  0  0  0  0  0  0  0
   18.9630    3.5910   21.7200 Br  0  0  0  0  0  0  0  0  0  0  0  0
   16.7400    4.8190   23.1370 C   0  0  0  0  0  0  0  0  0  0  0  0
   16.0060    4.5910   24.2710 N   0  0  0  0  0  0  0  0  0  0  0  0
   13.0390    1.4450   30.6300 N   0  0  0  0  0  0  0  0  0  0  0  0
  1  2  2  3
  2  3  1  0
  3  4  2  0
  4  5  1  0
  5  6  1  0
  6  7  1  0
  7  8  1  0
  8  9  2  0
  8 10  2  0
  8 11  1  0
  4 12  1  0
 12 13  2  0
 13 14  1  0
 14 15  1  1
 14 16  1  0
 16 17  1  0
 17 18  1  0
 18 19  2  0
 18 20  1  0
 20 21  2  0
 21 22  1  0
 22 23  1  0
 22 24  2  0
 24 25  1  0
 12 26  1  0
 26  2  1  0
 25 20  1  0
M  END
$$$$
