NRFZOEHKEBDYGE-UHFFFAOYSA-N_5U3Q_m8
     RDKit          3D

 29 31  0  0  0  0  0  0  0  0999 V2000
   40.6180  -39.1790  104.3520 C   0  0  0  0  0  0  0  0  0  0  0  0
   41.8900  -39.9360  104.6100 C   0  0  0  0  0  0  0  0  0  0  0  0
   42.4490  -39.8870  105.8970 C   0  0  0  0  0  0  0  0  0  0  0  0
   43.6140  -40.5960  106.2080 C   0  0  0  0  0  0  0  0  0  0  0  0
   44.2270  -40.5010  107.5860 C   0  0  0  0  0  0  0  0  0  0  0  0
   45.4880  -39.7970  107.5480 N   0  0  0  0  0  0  0  0  0  0  0  0
   46.7030  -40.3950  107.4400 C   0  0  0  0  0  0  0  0  0  0  0  0
   46.9240  -41.5940  107.3240 O   0  0  0  0  0  0  0  0  0  0  0  0
   47.7700  -39.3280  107.4800 C   0  0  0  0  0  0  0  0  0  0  0  0
   46.9830  -38.1230  107.6050 N   0  0  0  0  0  0  0  0  0  0  0  0
   47.5770  -36.8340  107.6820 C   0  0  0  0  0  0  0  0  0  0  0  0
   48.2160  -36.2410  106.5850 C   0  0  0  0  0  0  0  0  0  0  0  0
   48.7940  -34.9690  106.6800 C   0  0  0  0  0  0  0  0  0  0  0  0
   48.7410  -34.2620  107.8770 C   0  0  0  0  0  0  0  0  0  0  0  0
   48.1120  -34.8300  108.9800 C   0  0  0  0  0  0  0  0  0  0  0  0
   47.5350  -36.1030  108.8820 C   0  0  0  0  0  0  0  0  0  0  0  0
   45.6130  -38.4350  107.6350 C   0  0  0  0  0  0  0  0  0  0  0  0
   44.6660  -37.6670  107.7180 O   0  0  0  0  0  0  0  0  0  0  0  0
   44.2230  -41.3670  105.2100 C   0  0  0  0  0  0  0  0  0  0  0  0
   43.6830  -41.4370  103.9160 C   0  0  0  0  0  0  0  0  0  0  0  0
   44.3690  -42.3090  102.9040 C   0  0  0  0  0  0  0  0  0  0  0  0
   42.5520  -40.6640  103.6060 C   0  0  0  0  0  0  0  0  0  0  0  0
   42.0440  -40.6950  102.3340 O   0  0  0  0  0  0  0  0  0  0  0  0
   42.5960  -39.7300  101.4210 C   0  0  0  0  0  0  0  0  0  0  0  0
   43.5380  -38.8380  102.2520 C   0  0  0  0  0  0  0  0  0  0  0  0
   41.4380  -38.8170  100.9700 C   0  0  0  0  0  0  0  0  0  0  0  0
   43.3790  -40.2100  100.1690 C   0  0  0  0  0  0  0  0  0  0  0  0
   44.5910  -40.3100  100.0580 O   0  0  0  0  0  0  0  0  0  0  0  0
   42.5890  -40.5460   99.1270 O   0  0  0  0  0  0  0  0  0  0  0  0
  1  2  1  0
  2  3  2  0
  3  4  1  0
  4  5  1  0
  5  6  1  0
  6  7  1  0
  7  8  2  0
  7  9  1  0
  9 10  1  0
 10 11  1  0
 11 12  2  0
 12 13  1  0
 13 14  2  0
 14 15  1  0
 15 16  2  0
 10 17  1  0
 17 18  2  0
  4 19  2  0
 19 20  1  0
 20 21  1  0
 20 22  2  0
 22 23  1  0
 23 24  1  0
 24 25  1  0
 24 26  1  0
 24 27  1  0
 27 28  2  0
 27 29  1  0
 22  2  1  0
 17  6  1  0
 16 11  1  0
M  END
$$$$
