NSJOUOFECXFWLG-UHFFFAOYSA-N_6LXA_m6
     RDKit          3D

 33 35  0  0  0  0  0  0  0  0999 V2000
   10.5910    3.0860  -11.3530 C   0  0  0  0  0  0  0  0  0  0  0  0
   10.1430    2.7220   -9.9440 C   0  0  0  0  0  0  0  0  0  0  0  0
    9.1050    3.7190   -9.4130 C   0  0  0  0  0  0  0  0  0  0  0  0
    9.6120    4.5100   -8.1940 C   0  0  2  0  0  0  0  0  0  0  0  0
    8.3280    4.5370   -6.8650 S   0  0  0  0  0  0  0  0  0  0  0  0
    9.1950    3.7020   -5.5520 C   0  0  0  0  0  0  0  0  0  0  0  0
   10.1540    2.7390   -5.8670 C   0  0  0  0  0  0  0  0  0  0  0  0
   10.8400    2.0600   -4.8540 C   0  0  0  0  0  0  0  0  0  0  0  0
   10.5680    2.3310   -3.5110 C   0  0  0  0  0  0  0  0  0  0  0  0
   11.1770    1.7270   -2.4430 O   0  0  0  0  0  0  0  0  0  0  0  0
   12.3340    0.9350   -2.6680 C   0  0  0  0  0  0  0  0  0  0  0  0
   13.6440    1.5560   -2.2080 C   0  0  0  0  0  0  0  0  0  0  0  0
   14.4640    1.0930   -1.4320 O   0  0  0  0  0  0  0  0  0  0  0  0
   13.8520    2.7710   -2.7620 O   0  0  0  0  0  0  0  0  0  0  0  0
    9.5940    3.2920   -3.1850 C   0  0  0  0  0  0  0  0  0  0  0  0
    9.2580    3.5890   -1.7500 C   0  0  0  0  0  0  0  0  0  0  0  0
    8.9090    3.9640   -4.2110 C   0  0  0  0  0  0  0  0  0  0  0  0
   10.0070    5.9300   -8.5200 C   0  0  0  0  0  0  0  0  0  0  0  0
    9.2740    7.2230   -7.6500 S   0  0  0  0  0  0  0  0  0  0  0  0
   10.1900    8.3750   -8.5390 C   0  0  0  0  0  0  0  0  0  0  0  0
   10.0700    9.8310   -8.3110 C   0  0  0  0  0  0  0  0  0  0  0  0
   10.5080   10.7110   -9.3160 C   0  0  0  0  0  0  0  0  0  0  0  0
   10.4180   12.0980   -9.1630 C   0  0  0  0  0  0  0  0  0  0  0  0
    9.8890   12.6510   -7.9920 C   0  0  0  0  0  0  0  0  0  0  0  0
    9.7670   14.1460   -7.8290 C   0  0  0  0  0  0  0  0  0  0  0  0
    8.5580   14.6350   -8.2230 F   0  0  0  0  0  0  0  0  0  0  0  0
    9.9260   14.5400   -6.5350 F   0  0  0  0  0  0  0  0  0  0  0  0
   10.6980   14.8370   -8.5470 F   0  0  0  0  0  0  0  0  0  0  0  0
    9.4400   11.7850   -6.9860 C   0  0  0  0  0  0  0  0  0  0  0  0
    9.5310   10.3950   -7.1430 C   0  0  0  0  0  0  0  0  0  0  0  0
   11.0060    7.8400   -9.4240 N   0  0  0  0  0  0  0  0  0  0  0  0
   10.9040    6.4570   -9.4390 C   0  0  0  0  0  0  0  0  0  0  0  0
   11.7620    5.7260  -10.4100 C   0  0  0  0  0  0  0  0  0  0  0  0
  1  2  1  0
  2  3  1  0
  4  3  1  6
  4  5  1  0
  5  6  1  0
  6  7  2  0
  7  8  1  0
  8  9  2  0
  9 10  1  0
 10 11  1  0
 11 12  1  0
 12 13  2  0
 12 14  1  0
  9 15  1  0
 15 16  1  0
 15 17  2  0
  4 18  1  0
 18 19  1  0
 19 20  1  0
 20 21  1  0
 21 22  2  0
 22 23  1  0
 23 24  2  0
 24 25  1  0
 25 26  1  0
 25 27  1  0
 25 28  1  0
 24 29  1  0
 29 30  2  0
 20 31  2  0
 31 32  1  0
 32 33  1  0
 17  6  1  0
 32 18  2  0
 30 21  1  0
M  END
$$$$
