NSJOUOFECXFWLG-UHFFFAOYSA-N_6LXA_m8
     RDKit          3D

 33 35  0  0  0  0  0  0  0  0999 V2000
   11.2210   10.3630  -14.7070 C   0  0  0  0  0  0  0  0  0  0  0  0
   10.2700   10.9560  -13.6780 C   0  0  0  0  0  0  0  0  0  0  0  0
    9.4920    9.8590  -12.9400 C   0  0  0  0  0  0  0  0  0  0  0  0
    9.8500    9.7820  -11.4440 C   0  0  2  0  0  0  0  0  0  0  0  0
   11.3720   10.7710  -11.0960 S   0  0  0  0  0  0  0  0  0  0  0  0
   10.9950   11.3910   -9.4690 C   0  0  0  0  0  0  0  0  0  0  0  0
   11.3070   10.6190   -8.3500 C   0  0  0  0  0  0  0  0  0  0  0  0
   11.0100   11.0780   -7.0630 C   0  0  0  0  0  0  0  0  0  0  0  0
   10.3860   12.3140   -6.8790 C   0  0  0  0  0  0  0  0  0  0  0  0
   10.0500   12.8580   -5.6680 O   0  0  0  0  0  0  0  0  0  0  0  0
   10.8880   12.6140   -4.5480 C   0  0  0  0  0  0  0  0  0  0  0  0
   11.4880   13.8550   -3.9050 C   0  0  0  0  0  0  0  0  0  0  0  0
   12.6650   14.1050   -3.7070 O   0  0  0  0  0  0  0  0  0  0  0  0
   10.5390   14.7410   -3.5270 O   0  0  0  0  0  0  0  0  0  0  0  0
   10.0570   13.0950   -8.0020 C   0  0  0  0  0  0  0  0  0  0  0  0
    9.3620   14.4180   -7.8410 C   0  0  0  0  0  0  0  0  0  0  0  0
   10.3580   12.6200   -9.2900 C   0  0  0  0  0  0  0  0  0  0  0  0
   10.0600    8.3710  -10.9490 C   0  0  0  0  0  0  0  0  0  0  0  0
    9.5160    7.9500   -9.3690 S   0  0  0  0  0  0  0  0  0  0  0  0
   10.0750    6.3380   -9.5780 C   0  0  0  0  0  0  0  0  0  0  0  0
    9.9350    5.3070   -8.5270 C   0  0  0  0  0  0  0  0  0  0  0  0
   10.0750    5.6910   -7.1820 C   0  0  0  0  0  0  0  0  0  0  0  0
    9.9500    4.7640   -6.1410 C   0  0  0  0  0  0  0  0  0  0  0  0
    9.6850    3.4180   -6.4160 C   0  0  0  0  0  0  0  0  0  0  0  0
    9.5250    2.4170   -5.2990 C   0  0  0  0  0  0  0  0  0  0  0  0
    8.3870    1.6750   -5.3980 F   0  0  0  0  0  0  0  0  0  0  0  0
   10.5530    1.5240   -5.2530 F   0  0  0  0  0  0  0  0  0  0  0  0
    9.4820    2.9990   -4.0670 F   0  0  0  0  0  0  0  0  0  0  0  0
    9.5350    3.0250   -7.7530 C   0  0  0  0  0  0  0  0  0  0  0  0
    9.6600    3.9560   -8.7930 C   0  0  0  0  0  0  0  0  0  0  0  0
   10.6240    6.1110  -10.7550 N   0  0  0  0  0  0  0  0  0  0  0  0
   10.6390    7.2560  -11.5380 C   0  0  0  0  0  0  0  0  0  0  0  0
   11.2510    7.1420  -12.8890 C   0  0  0  0  0  0  0  0  0  0  0  0
  1  2  1  0
  2  3  1  0
  4  3  1  6
  4  5  1  0
  5  6  1  0
  6  7  2  0
  7  8  1  0
  8  9  2  0
  9 10  1  0
 10 11  1  0
 11 12  1  0
 12 13  2  0
 12 14  1  0
  9 15  1  0
 15 16  1  0
 15 17  2  0
  4 18  1  0
 18 19  1  0
 19 20  1  0
 20 21  1  0
 21 22  2  0
 22 23  1  0
 23 24  2  0
 24 25  1  0
 25 26  1  0
 25 27  1  0
 25 28  1  0
 24 29  1  0
 29 30  2  0
 20 31  2  0
 31 32  1  0
 32 33  1  0
 17  6  1  0
 32 18  2  0
 30 21  1  0
M  END
$$$$
