NSUDDASMRZSVON-UHFFFAOYSA-N_2JKH_m1
     RDKit          3D

 25 27  0  0  0  0  0  0  0  0999 V2000
   -2.5610    7.6370   28.1670 C   0  0  0  0  0  0  0  0  0  0  0  0
   -1.0460    7.5720   27.9850 C   0  0  0  0  0  0  0  0  0  0  0  0
   -0.6070    6.1350   27.6960 C   0  0  0  0  0  0  0  0  0  0  0  0
   -0.5980    8.5300   26.8710 C   0  0  0  0  0  0  0  0  0  0  0  0
   -1.7530    8.9640   26.1480 O   0  0  0  0  0  0  0  0  0  0  0  0
   -1.5820   10.0120   25.2760 C   0  0  0  0  0  0  0  0  0  0  0  0
   -0.5910   10.1150   24.3010 C   0  0  0  0  0  0  0  0  0  0  0  0
   -0.5410   11.2430   23.4810 C   0  0  0  0  0  0  0  0  0  0  0  0
   -1.4770   12.2690   23.6330 C   0  0  0  0  0  0  0  0  0  0  0  0
   -2.4850   12.1930   24.6050 C   0  0  0  0  0  0  0  0  0  0  0  0
   -3.4430   13.2970   24.7230 C   0  0  0  0  0  0  0  0  0  0  0  0
   -3.8790   13.8490   25.8450 N   0  0  0  0  0  0  0  0  0  0  0  0
   -4.7550   14.8370   25.4720 C   0  0  0  0  0  0  0  0  0  0  0  0
   -5.4970   15.7250   26.2640 C   0  0  0  0  0  0  0  0  0  0  0  0
   -6.3380   16.6600   25.6330 C   0  0  0  0  0  0  0  0  0  0  0  0
   -7.1280   17.6060   26.4790 C   0  0  0  0  0  0  0  0  0  0  0  0
   -6.5150   18.5400   27.1320 N   0  0  0  0  0  0  0  0  0  0  0  0
   -8.4800   17.5070   26.5770 N   0  0  0  0  0  0  0  0  0  0  0  0
   -6.4200   16.6890   24.2350 C   0  0  0  0  0  0  0  0  0  0  0  0
   -7.2170   17.5750   23.6130 F   0  0  0  0  0  0  0  0  0  0  0  0
   -5.6870   15.8120   23.4270 C   0  0  0  0  0  0  0  0  0  0  0  0
   -4.8660   14.9000   24.0880 C   0  0  0  0  0  0  0  0  0  0  0  0
   -4.0270   13.9160   23.6410 N   0  0  0  0  0  0  0  0  0  0  0  0
   -2.5190   11.0500   25.4190 C   0  0  0  0  0  0  0  0  0  0  0  0
   -3.4850   10.9120   26.3950 O   0  0  0  0  0  0  0  0  0  0  0  0
  1  2  1  0
  2  3  1  0
  2  4  1  0
  4  5  1  0
  5  6  1  0
  6  7  2  0
  7  8  1  0
  8  9  2  0
  9 10  1  0
 10 11  1  0
 11 12  2  0
 12 13  1  0
 13 14  2  0
 14 15  1  0
 15 16  1  0
 16 17  2  3
 16 18  1  0
 15 19  2  0
 19 20  1  0
 19 21  1  0
 21 22  2  0
 22 23  1  0
 10 24  2  0
 24 25  1  0
 24  6  1  0
 23 11  1  0
 22 13  1  0
M  END
$$$$
