NURBYSCFSBBMLZ-UHFFFAOYSA-N_3RCD_m4
     RDKit          3D

 32 35  0  0  0  0  0  0  0  0999 V2000
   12.2870    2.7560   24.0660 C   0  0  0  0  0  0  0  0  0  0  0  0
   12.3850    4.1550   24.6390 C   0  0  0  0  0  0  0  0  0  0  0  0
   13.5350    4.7930   24.0660 O   0  0  0  0  0  0  0  0  0  0  0  0
   14.4860    5.1530   24.9760 C   0  0  0  0  0  0  0  0  0  0  0  0
   14.4260    6.1440   25.6920 O   0  0  0  0  0  0  0  0  0  0  0  0
   15.5590    4.1880   24.9560 C   0  0  0  0  0  0  0  0  0  0  0  0
   16.5190    4.1680   23.9520 N   0  0  0  0  0  0  0  0  0  0  0  0
   17.4370    3.1580   24.1360 C   0  0  0  0  0  0  0  0  0  0  0  0
   18.5570    2.9330   23.1870 C   0  0  0  0  0  0  0  0  0  0  0  0
   17.0610    2.5130   25.2900 C   0  0  0  0  0  0  0  0  0  0  0  0
   17.7090    1.4220   25.8580 C   0  0  0  0  0  0  0  0  0  0  0  0
   17.1030    1.0060   26.9970 N   0  0  0  0  0  0  0  0  0  0  0  0
   15.8930    1.6500   27.5530 N   0  0  0  0  0  0  0  0  0  0  0  0
   15.2290    2.7300   27.0140 C   0  0  0  0  0  0  0  0  0  0  0  0
   14.0850    3.2980   27.5810 N   0  0  0  0  0  0  0  0  0  0  0  0
   13.0670    2.7740   28.3950 C   0  0  0  0  0  0  0  0  0  0  0  0
   11.7780    2.4810   27.9450 C   0  0  0  0  0  0  0  0  0  0  0  0
   10.8000    1.9650   28.8090 C   0  0  0  0  0  0  0  0  0  0  0  0
   11.0900    1.7360   30.1530 C   0  0  0  0  0  0  0  0  0  0  0  0
   10.1980    1.2290   31.0610 O   0  0  0  0  0  0  0  0  0  0  0  0
    8.8170    1.2650   30.7030 C   0  0  0  0  0  0  0  0  0  0  0  0
    8.2080    2.5860   31.1230 C   0  0  0  0  0  0  0  0  0  0  0  0
    8.3400    3.0710   32.4360 C   0  0  0  0  0  0  0  0  0  0  0  0
    7.8070    4.3120   32.7980 C   0  0  0  0  0  0  0  0  0  0  0  0
    7.1490    5.0900   31.8500 C   0  0  0  0  0  0  0  0  0  0  0  0
    7.0300    4.6220   30.5470 C   0  0  0  0  0  0  0  0  0  0  0  0
    6.4050    5.3730   29.6320 F   0  0  0  0  0  0  0  0  0  0  0  0
    7.5540    3.3860   30.1760 C   0  0  0  0  0  0  0  0  0  0  0  0
   12.3830    2.0110   30.6110 C   0  0  0  0  0  0  0  0  0  0  0  0
   12.8270    1.7450   32.2620 Cl  0  0  0  0  0  0  0  0  0  0  0  0
   13.3550    2.5250   29.7450 C   0  0  0  0  0  0  0  0  0  0  0  0
   15.8820    3.1500   25.8200 C   0  0  0  0  0  0  0  0  0  0  0  0
  1  2  1  0
  2  3  1  0
  3  4  1  0
  4  5  2  0
  4  6  1  0
  6  7  1  0
  7  8  1  0
  8  9  1  0
  8 10  2  0
 10 11  1  0
 11 12  2  0
 12 13  1  0
 13 14  2  0
 14 15  1  0
 15 16  1  0
 16 17  2  0
 17 18  1  0
 18 19  2  0
 19 20  1  0
 20 21  1  0
 21 22  1  0
 22 23  2  0
 23 24  1  0
 24 25  2  0
 25 26  1  0
 26 27  1  0
 26 28  2  0
 19 29  1  0
 29 30  1  0
 29 31  2  0
 14 32  1  0
 32  6  2  0
 32 10  1  0
 31 16  1  0
 28 22  1  0
M  END
$$$$
