NWRYHCNPTDKBAI-FYYLOGMGSA-N_3POZ_m1
     RDKit          3D

 41 46  0  0  0  0  0  0  0  0999 V2000
   26.8510   32.8180   17.3100 O   0  0  0  0  0  0  0  0  0  0  0  0
   26.5630   33.2940   18.4010 C   0  0  0  0  0  0  0  0  0  0  0  0
   25.7210   34.3510   18.5580 O   0  0  0  0  0  0  0  0  0  0  0  0
   24.3890   34.1600   18.0430 C   0  0  1  0  0  0  0  0  0  0  0  0
   23.5210   33.3970   19.0420 C   0  0  0  0  0  0  0  0  0  0  0  0
   22.8860   34.4420   19.8680 N   0  0  0  0  0  0  0  0  0  0  0  0
   22.5820   35.5290   18.9310 C   0  0  2  0  0  0  0  0  0  0  0  0
   21.2810   35.2960   18.2850 C   0  0  0  0  0  0  0  0  0  0  0  0
   20.2140   35.0990   17.7680 C   0  0  0  0  0  0  0  0  0  0  0  0
   18.9390   34.8680   17.1750 C   0  0  0  0  0  0  0  0  0  0  0  0
   17.8200   34.4560   17.8590 C   0  0  0  0  0  0  0  0  0  0  0  0
   16.6860   34.3120   17.0090 C   0  0  0  0  0  0  0  0  0  0  0  0
   15.4560   33.9180   17.4170 N   0  0  0  0  0  0  0  0  0  0  0  0
   14.5530   33.8630   16.4350 C   0  0  0  0  0  0  0  0  0  0  0  0
   14.7400   34.1470   15.1370 N   0  0  0  0  0  0  0  0  0  0  0  0
   15.9620   34.5410   14.7150 C   0  0  0  0  0  0  0  0  0  0  0  0
   16.2200   34.8560   13.3740 N   0  0  0  0  0  0  0  0  0  0  0  0
   16.6700   34.0810   12.2960 C   0  0  0  0  0  0  0  0  0  0  0  0
   16.4980   34.5660   10.9930 C   0  0  0  0  0  0  0  0  0  0  0  0
   16.9300   33.8230    9.8950 C   0  0  0  0  0  0  0  0  0  0  0  0
   17.5290   32.5980   10.1240 C   0  0  0  0  0  0  0  0  0  0  0  0
   17.9400   31.8990    9.0080 O   0  0  0  0  0  0  0  0  0  0  0  0
   17.1880   32.2260    7.8410 C   0  0  0  0  0  0  0  0  0  0  0  0
   16.3950   31.0000    7.4550 C   0  0  0  0  0  0  0  0  0  0  0  0
   15.0130   30.9430    7.6900 C   0  0  0  0  0  0  0  0  0  0  0  0
   14.2790   29.8020    7.3540 C   0  0  0  0  0  0  0  0  0  0  0  0
   14.9240   28.7040    6.7880 C   0  0  0  0  0  0  0  0  0  0  0  0
   16.2950   28.7540    6.5670 C   0  0  0  0  0  0  0  0  0  0  0  0
   16.9150   27.6960    6.0300 F   0  0  0  0  0  0  0  0  0  0  0  0
   17.0340   29.8850    6.8960 C   0  0  0  0  0  0  0  0  0  0  0  0
   17.7220   32.0850   11.3520 N   0  0  0  0  0  0  0  0  0  0  0  0
   17.2890   32.8360   12.4000 C   0  0  0  0  0  0  0  0  0  0  0  0
   16.9740   34.6260   15.6860 C   0  0  0  0  0  0  0  0  0  0  0  0
   18.6270   35.0830   15.5130 S   0  0  0  0  0  0  0  0  0  0  0  0
   23.7320   35.5350   17.9250 C   0  0  0  0  0  0  0  0  0  0  0  0
   27.0450   32.8220   19.6020 N   0  0  0  0  0  0  0  0  0  0  0  0
   27.8940   31.6330   19.6360 C   0  0  0  0  0  0  0  0  0  0  0  0
   29.0540   31.8180   20.6170 C   0  0  0  0  0  0  0  0  0  0  0  0
   28.5750   32.2020   21.9170 O   0  0  0  0  0  0  0  0  0  0  0  0
   27.8610   33.4450   21.8450 C   0  0  0  0  0  0  0  0  0  0  0  0
   26.6500   33.3380   20.9120 C   0  0  0  0  0  0  0  0  0  0  0  0
  1  2  2  0
  2  3  1  0
  4  3  1  1
  4  5  1  0
  5  6  1  0
  6  7  1  0
  7  8  1  6
  8  9  3  0
  9 10  1  0
 10 11  2  0
 11 12  1  0
 12 13  2  0
 13 14  1  0
 14 15  2  0
 15 16  1  0
 16 17  1  0
 17 18  1  0
 18 19  2  0
 19 20  1  0
 20 21  2  0
 21 22  1  0
 22 23  1  0
 23 24  1  0
 24 25  2  0
 25 26  1  0
 26 27  2  0
 27 28  1  0
 28 29  1  0
 28 30  2  0
 21 31  1  0
 31 32  2  0
 16 33  2  0
 33 34  1  0
  7 35  1  0
  2 36  1  0
 36 37  1  0
 37 38  1  0
 38 39  1  0
 39 40  1  0
 40 41  1  0
 35  4  1  0
 41 36  1  0
 34 10  1  0
 33 12  1  0
 32 18  1  0
 30 24  1  0
M  END
$$$$
