NXCAPWDBSDFCJW-UHFFFAOYSA-N_9V8H_m1
     RDKit          3D

 43 47  0  0  0  0  0  0  0  0999 V2000
   -8.2210   -7.9250  -21.8990 C   0  0  0  0  0  0  0  0  0  0  0  0
   -9.1670   -8.9900  -22.4930 C   0  0  0  0  0  0  0  0  0  0  0  0
  -10.3280   -9.2450  -21.5090 C   0  0  0  0  0  0  0  0  0  0  0  0
   -8.3610  -10.3050  -22.6010 C   0  0  0  0  0  0  0  0  0  0  0  0
   -9.7330   -8.4950  -23.8360 C   0  0  0  0  0  0  0  0  0  0  0  0
   -8.8640   -8.0200  -24.8380 C   0  0  0  0  0  0  0  0  0  0  0  0
   -9.3430   -7.5580  -26.0680 C   0  0  0  0  0  0  0  0  0  0  0  0
  -10.7160   -7.5520  -26.3230 C   0  0  0  0  0  0  0  0  0  0  0  0
  -11.2100   -7.0650  -27.5700 N   0  0  0  0  0  0  0  0  0  0  0  0
  -10.9620   -7.6250  -28.8190 C   0  0  0  0  0  0  0  0  0  0  0  0
  -10.3380   -8.8860  -29.0880 C   0  0  0  0  0  0  0  0  0  0  0  0
   -9.2180   -9.2560  -28.7680 O   0  0  0  0  0  0  0  0  0  0  0  0
  -11.1280   -9.6840  -29.8350 O   0  0  0  0  0  0  0  0  0  0  0  0
  -11.4680   -6.7550  -29.7640 C   0  0  0  0  0  0  0  0  0  0  0  0
  -11.3770   -7.0120  -31.0900 O   0  0  0  0  0  0  0  0  0  0  0  0
  -10.3030   -6.5680  -31.8250 C   0  0  0  0  0  0  0  0  0  0  0  0
   -9.5670   -7.5270  -32.5180 C   0  0  0  0  0  0  0  0  0  0  0  0
   -8.4560   -7.1420  -33.2680 C   0  0  0  0  0  0  0  0  0  0  0  0
   -8.0750   -5.8000  -33.3120 C   0  0  0  0  0  0  0  0  0  0  0  0
   -8.7980   -4.8280  -32.6030 C   0  0  0  0  0  0  0  0  0  0  0  0
   -8.3760   -3.3800  -32.6170 C   0  0  0  0  0  0  0  0  0  0  0  0
   -7.0810   -3.2010  -33.0050 F   0  0  0  0  0  0  0  0  0  0  0  0
   -9.1220   -2.6180  -33.4650 F   0  0  0  0  0  0  0  0  0  0  0  0
   -8.4830   -2.7940  -31.3940 F   0  0  0  0  0  0  0  0  0  0  0  0
   -9.9100   -5.2280  -31.8440 C   0  0  0  0  0  0  0  0  0  0  0  0
  -12.1530   -5.7000  -29.1070 C   0  0  0  0  0  0  0  0  0  0  0  0
  -12.9130   -4.5950  -29.5490 C   0  0  0  0  0  0  0  0  0  0  0  0
  -13.4310   -3.7010  -28.6100 C   0  0  0  0  0  0  0  0  0  0  0  0
  -14.1490   -2.6150  -29.0440 O   0  0  0  0  0  0  0  0  0  0  0  0
  -13.5960   -1.7970  -29.9410 C   0  0  0  0  0  0  0  0  0  0  0  0
  -12.3370   -1.6920  -30.5020 C   0  0  0  0  0  0  0  0  0  0  0  0
  -12.3430   -0.6030  -31.4270 C   0  0  0  0  0  0  0  0  0  0  0  0
  -11.1900   -0.1390  -32.2550 C   0  0  0  0  0  0  0  0  0  0  0  0
  -11.1940   -0.6920  -33.4960 F   0  0  0  0  0  0  0  0  0  0  0  0
  -11.2050    1.2080  -32.4240 F   0  0  0  0  0  0  0  0  0  0  0  0
   -9.9960   -0.4530  -31.6900 F   0  0  0  0  0  0  0  0  0  0  0  0
  -13.6250   -0.0770  -31.3840 C   0  0  0  0  0  0  0  0  0  0  0  0
  -14.3630   -0.8000  -30.4850 N   0  0  0  0  0  0  0  0  0  0  0  0
  -13.1800   -3.8570  -27.2550 C   0  0  0  0  0  0  0  0  0  0  0  0
  -12.4400   -4.9500  -26.7970 C   0  0  0  0  0  0  0  0  0  0  0  0
  -11.9650   -5.8960  -27.7330 C   0  0  0  0  0  0  0  0  0  0  0  0
  -11.5980   -8.0210  -25.3480 C   0  0  0  0  0  0  0  0  0  0  0  0
  -11.1090   -8.4890  -24.1220 C   0  0  0  0  0  0  0  0  0  0  0  0
  1  2  1  0
  2  3  1  0
  2  4  1  0
  2  5  1  0
  5  6  2  0
  6  7  1  0
  7  8  2  0
  8  9  1  0
  9 10  1  0
 10 11  1  0
 11 12  2  0
 11 13  1  0
 10 14  2  0
 14 15  1  0
 15 16  1  0
 16 17  2  0
 17 18  1  0
 18 19  2  0
 19 20  1  0
 20 21  1  0
 21 22  1  0
 21 23  1  0
 21 24  1  0
 20 25  2  0
 14 26  1  0
 26 27  2  0
 27 28  1  0
 28 29  1  0
 29 30  1  0
 30 31  2  0
 31 32  1  0
 32 33  1  0
 33 34  1  0
 33 35  1  0
 33 36  1  0
 32 37  2  0
 37 38  1  0
 28 39  2  0
 39 40  1  0
 40 41  2  0
  8 42  1  0
 42 43  2  0
 43  5  1  0
 41  9  1  0
 25 16  1  0
 41 26  1  0
 38 30  1  0
M  END
$$$$
