NXCAPWDBSDFCJW-UHFFFAOYSA-N_9V8H_m4
     RDKit          3D

 43 47  0  0  0  0  0  0  0  0999 V2000
   -8.3310  -10.3440  -22.5740 C   0  0  0  0  0  0  0  0  0  0  0  0
   -9.1740   -9.0850  -22.2800 C   0  0  0  0  0  0  0  0  0  0  0  0
   -8.3000   -8.0480  -21.5430 C   0  0  0  0  0  0  0  0  0  0  0  0
  -10.2990   -9.5080  -21.3080 C   0  0  0  0  0  0  0  0  0  0  0  0
   -9.6860   -8.4790  -23.5980 C   0  0  0  0  0  0  0  0  0  0  0  0
  -11.0480   -8.5820  -23.9420 C   0  0  0  0  0  0  0  0  0  0  0  0
  -11.5480   -8.0470  -25.1350 C   0  0  0  0  0  0  0  0  0  0  0  0
  -10.6860   -7.3990  -26.0220 C   0  0  0  0  0  0  0  0  0  0  0  0
  -11.1880   -6.8670  -27.2470 N   0  0  0  0  0  0  0  0  0  0  0  0
  -10.8180   -7.2740  -28.5250 C   0  0  0  0  0  0  0  0  0  0  0  0
  -10.0240   -8.4160  -28.8680 C   0  0  0  0  0  0  0  0  0  0  0  0
   -8.8410   -8.6100  -28.6280 O   0  0  0  0  0  0  0  0  0  0  0  0
  -10.7270   -9.3150  -29.5860 O   0  0  0  0  0  0  0  0  0  0  0  0
  -11.3940   -6.3920  -29.4170 C   0  0  0  0  0  0  0  0  0  0  0  0
  -11.2160   -6.5130  -30.7540 O   0  0  0  0  0  0  0  0  0  0  0  0
  -10.3310   -5.7030  -31.4260 C   0  0  0  0  0  0  0  0  0  0  0  0
   -9.4100   -6.3270  -32.2660 C   0  0  0  0  0  0  0  0  0  0  0  0
   -8.4750   -5.5630  -32.9620 C   0  0  0  0  0  0  0  0  0  0  0  0
   -8.4530   -4.1750  -32.8060 C   0  0  0  0  0  0  0  0  0  0  0  0
   -9.3630   -3.5380  -31.9490 C   0  0  0  0  0  0  0  0  0  0  0  0
   -9.3270   -2.0440  -31.7470 C   0  0  0  0  0  0  0  0  0  0  0  0
   -9.7690   -1.3430  -32.8300 F   0  0  0  0  0  0  0  0  0  0  0  0
  -10.0970   -1.6300  -30.7020 F   0  0  0  0  0  0  0  0  0  0  0  0
   -8.0710   -1.5830  -31.4930 F   0  0  0  0  0  0  0  0  0  0  0  0
  -10.2950   -4.3190  -31.2450 C   0  0  0  0  0  0  0  0  0  0  0  0
  -12.2370   -5.4970  -28.7100 C   0  0  0  0  0  0  0  0  0  0  0  0
  -13.1170   -4.4620  -29.0940 C   0  0  0  0  0  0  0  0  0  0  0  0
  -13.7850   -3.7300  -28.1110 C   0  0  0  0  0  0  0  0  0  0  0  0
  -14.6200   -2.7090  -28.4880 O   0  0  0  0  0  0  0  0  0  0  0  0
  -14.4050   -2.1010  -29.6570 C   0  0  0  0  0  0  0  0  0  0  0  0
  -13.3870   -1.3130  -30.1590 C   0  0  0  0  0  0  0  0  0  0  0  0
  -13.7160   -0.9510  -31.5010 C   0  0  0  0  0  0  0  0  0  0  0  0
  -12.8920   -0.1070  -32.4170 C   0  0  0  0  0  0  0  0  0  0  0  0
  -12.4260   -0.8090  -33.4820 F   0  0  0  0  0  0  0  0  0  0  0  0
  -13.6060    0.9360  -32.9140 F   0  0  0  0  0  0  0  0  0  0  0  0
  -11.8090    0.4200  -31.7900 F   0  0  0  0  0  0  0  0  0  0  0  0
  -14.9450   -1.5380  -31.7620 C   0  0  0  0  0  0  0  0  0  0  0  0
  -15.3480   -2.2190  -30.6440 N   0  0  0  0  0  0  0  0  0  0  0  0
  -13.5720   -3.9760  -26.7630 C   0  0  0  0  0  0  0  0  0  0  0  0
  -12.7150   -5.0040  -26.3620 C   0  0  0  0  0  0  0  0  0  0  0  0
  -12.0820   -5.7930  -27.3490 C   0  0  0  0  0  0  0  0  0  0  0  0
   -9.3330   -7.2800  -25.7030 C   0  0  0  0  0  0  0  0  0  0  0  0
   -8.8420   -7.8120  -24.5030 C   0  0  0  0  0  0  0  0  0  0  0  0
  1  2  1  0
  2  3  1  0
  2  4  1  0
  2  5  1  0
  5  6  2  0
  6  7  1  0
  7  8  2  0
  8  9  1  0
  9 10  1  0
 10 11  1  0
 11 12  2  0
 11 13  1  0
 10 14  2  0
 14 15  1  0
 15 16  1  0
 16 17  2  0
 17 18  1  0
 18 19  2  0
 19 20  1  0
 20 21  1  0
 21 22  1  0
 21 23  1  0
 21 24  1  0
 20 25  2  0
 14 26  1  0
 26 27  2  0
 27 28  1  0
 28 29  1  0
 29 30  1  0
 30 31  2  0
 31 32  1  0
 32 33  1  0
 33 34  1  0
 33 35  1  0
 33 36  1  0
 32 37  2  0
 37 38  1  0
 28 39  2  0
 39 40  1  0
 40 41  2  0
  8 42  1  0
 42 43  2  0
 43  5  1  0
 41  9  1  0
 25 16  1  0
 41 26  1  0
 38 30  1  0
M  END
$$$$
