NXIZKFYYHVTHFH-NBEIKUQISA-N_9V8H_m2
     RDKit          3D

 27 29  0  0  0  0  0  0  0  0999 V2000
   -1.9620   -0.6270  -21.9220 C   0  0  0  0  0  0  0  0  0  0  0  0
   -3.3820   -1.1280  -22.1620 C   0  0  0  0  0  0  0  0  0  0  0  0
   -3.8800   -2.1560  -21.1200 C   0  0  1  0  0  0  0  0  0  0  0  0
   -4.0490   -1.3930  -19.7550 C   0  0  0  0  0  0  0  0  0  0  0  0
   -3.4850   -1.6390  -18.7000 O   0  0  0  0  0  0  0  0  0  0  0  0
   -4.9070   -0.3480  -19.8190 O   0  0  0  0  0  0  0  0  0  0  0  0
   -5.0840   -2.7090  -21.6540 O   0  0  0  0  0  0  0  0  0  0  0  0
   -5.5730   -3.8080  -20.8950 C   0  0  0  0  0  0  0  0  0  0  0  0
   -4.5120   -4.9030  -20.7980 C   0  0  2  0  0  0  0  0  0  0  0  0
   -5.0200   -6.0750  -19.9470 C   0  0  0  0  0  0  0  0  0  0  0  0
   -6.5180   -6.0590  -19.6250 C   0  0  0  0  0  0  0  0  0  0  0  0
   -7.4020   -6.9380  -20.5180 C   0  0  0  0  0  0  0  0  0  0  0  0
   -6.6680   -8.0460  -21.2790 C   0  0  0  0  0  0  0  0  0  0  0  0
   -7.3610   -8.4710  -22.5250 C   0  0  0  0  0  0  0  0  0  0  0  0
   -8.4350   -7.7620  -23.0120 N   0  0  0  0  0  0  0  0  0  0  0  0
   -8.7870   -8.4080  -24.1090 C   0  0  0  0  0  0  0  0  0  0  0  0
   -9.8640   -8.1130  -25.0490 C   0  0  0  0  0  0  0  0  0  0  0  0
  -11.2060   -8.0410  -24.6450 C   0  0  0  0  0  0  0  0  0  0  0  0
  -12.2160   -7.7580  -25.5690 C   0  0  0  0  0  0  0  0  0  0  0  0
  -11.8980   -7.5400  -26.9080 C   0  0  0  0  0  0  0  0  0  0  0  0
  -10.5700   -7.6070  -27.3250 C   0  0  0  0  0  0  0  0  0  0  0  0
   -9.5610   -7.8920  -26.4020 C   0  0  0  0  0  0  0  0  0  0  0  0
   -8.0130   -9.5070  -24.3760 O   0  0  0  0  0  0  0  0  0  0  0  0
   -7.1060   -9.5440  -23.3540 C   0  0  0  0  0  0  0  0  0  0  0  0
   -6.1230  -10.6400  -23.3750 C   0  0  0  0  0  0  0  0  0  0  0  0
   -3.2310   -4.2740  -20.2610 C   0  0  0  0  0  0  0  0  0  0  0  0
   -2.8590   -3.1600  -21.0650 O   0  0  0  0  0  0  0  0  0  0  0  0
  1  2  1  0
  3  2  1  1
  3  4  1  0
  4  5  2  0
  4  6  1  0
  3  7  1  0
  7  8  1  0
  8  9  1  0
  9 10  1  6
 10 11  1  0
 11 12  1  0
 12 13  1  0
 13 14  1  0
 14 15  1  0
 15 16  2  0
 16 17  1  0
 17 18  2  0
 18 19  1  0
 19 20  2  0
 20 21  1  0
 21 22  2  0
 16 23  1  0
 23 24  1  0
 24 25  1  0
  9 26  1  0
 26 27  1  0
 27  3  1  0
 24 14  2  0
 22 17  1  0
M  END
$$$$
