NZWKRMFCKXOQMF-UHFFFAOYSA-N_6N7A_m3
     RDKit          3D

 34 38  0  0  0  0  0  0  0  0999 V2000
    3.7050  -18.8300   19.2020 C   0  0  0  0  0  0  0  0  0  0  0  0
    3.6940  -19.8850   20.3000 C   0  0  0  0  0  0  0  0  0  0  0  0
    4.9910  -20.0150   21.1250 C   0  0  0  0  0  0  0  0  0  0  0  0
    4.8860  -19.3720   22.5220 C   0  0  0  0  0  0  0  0  0  0  0  0
    3.4470  -19.2420   23.0050 C   0  0  0  0  0  0  0  0  0  0  0  0
    5.4800  -21.3920   21.1600 N   0  0  0  0  0  0  0  0  0  0  0  0
    4.9590  -22.4160   21.9040 C   0  0  0  0  0  0  0  0  0  0  0  0
    5.7020  -23.5440   21.6100 C   0  0  0  0  0  0  0  0  0  0  0  0
    5.5780  -24.8910   22.1270 C   0  0  0  0  0  0  0  0  0  0  0  0
    6.5360  -25.3250   22.8980 N   0  0  0  0  0  0  0  0  0  0  0  0
    6.4380  -26.6000   23.4320 C   0  0  0  0  0  0  0  0  0  0  0  0
    7.5350  -26.9710   24.2760 C   0  0  0  0  0  0  0  0  0  0  0  0
    7.7990  -28.2250   24.8710 C   0  0  0  0  0  0  0  0  0  0  0  0
    8.9250  -28.2290   25.5910 N   0  0  0  0  0  0  0  0  0  0  0  0
    9.3760  -26.9680   25.4760 N   0  0  0  0  0  0  0  0  0  0  0  0
   10.6270  -26.4880   26.0960 C   0  0  1  0  0  0  0  0  0  0  0  0
   11.1850  -27.4170   27.1940 C   0  0  0  0  0  0  0  0  0  0  0  0
   12.6050  -27.1320   26.6210 C   0  0  1  0  0  0  0  0  0  0  0  0
   13.6330  -28.2890   26.6820 C   0  0  0  0  0  0  0  0  0  0  0  0
   14.4300  -28.4590   27.6060 O   0  0  0  0  0  0  0  0  0  0  0  0
   13.5960  -29.1420   25.5980 N   0  0  0  0  0  0  0  0  0  0  0  0
   14.4840  -30.2880   25.4920 C   0  0  0  0  0  0  0  0  0  0  0  0
   15.6800  -30.0100   24.5820 C   0  0  0  0  0  0  0  0  0  0  0  0
   15.3540  -28.9770   23.6520 O   0  0  0  0  0  0  0  0  0  0  0  0
   11.8910  -26.8180   25.2740 C   0  0  0  0  0  0  0  0  0  0  0  0
    8.5820  -26.1760   24.6930 C   0  0  0  0  0  0  0  0  0  0  0  0
    5.3890  -27.4030   23.1770 C   0  0  0  0  0  0  0  0  0  0  0  0
    4.3770  -26.9620   22.3480 N   0  0  0  0  0  0  0  0  0  0  0  0
    3.2590  -27.6250   21.9690 N   0  0  0  0  0  0  0  0  0  0  0  0
    2.6500  -26.7960   21.1220 C   0  0  0  0  0  0  0  0  0  0  0  0
    3.3460  -25.5880   20.9580 C   0  0  0  0  0  0  0  0  0  0  0  0
    4.4410  -25.7040   21.7840 C   0  0  0  0  0  0  0  0  0  0  0  0
    6.6750  -23.0660   20.7000 C   0  0  0  0  0  0  0  0  0  0  0  0
    6.5270  -21.7720   20.4070 N   0  0  0  0  0  0  0  0  0  0  0  0
  1  2  1  0
  2  3  1  0
  3  4  1  0
  4  5  1  0
  3  6  1  0
  6  7  1  0
  7  8  2  0
  8  9  1  0
  9 10  2  0
 10 11  1  0
 11 12  1  0
 12 13  1  0
 13 14  2  0
 14 15  1  0
 16 15  1  6
 16 17  1  0
 17 18  1  0
 18 19  1  6
 19 20  2  0
 19 21  1  0
 21 22  1  0
 22 23  1  0
 23 24  1  0
 18 25  1  0
 15 26  1  0
 11 27  2  0
 27 28  1  0
 28 29  1  0
 29 30  2  0
 30 31  1  0
 31 32  2  0
  8 33  1  0
 33 34  2  0
 34  6  1  0
 32  9  1  0
 26 12  2  0
 32 28  1  0
 25 16  1  0
M  END
$$$$
