NZWKRMFCKXOQMF-UHFFFAOYSA-N_6N7A_m5
     RDKit          3D

 34 38  0  0  0  0  0  0  0  0999 V2000
    7.0060  -17.7480   21.2570 C   0  0  0  0  0  0  0  0  0  0  0  0
    7.1960  -19.0240   22.0650 C   0  0  0  0  0  0  0  0  0  0  0  0
    5.9050  -19.7260   22.5330 C   0  0  0  0  0  0  0  0  0  0  0  0
    4.6280  -18.9330   22.1940 C   0  0  0  0  0  0  0  0  0  0  0  0
    3.4650  -19.2640   23.1220 C   0  0  0  0  0  0  0  0  0  0  0  0
    5.8520  -21.1200   22.0930 N   0  0  0  0  0  0  0  0  0  0  0  0
    5.7150  -22.2170   22.8990 C   0  0  0  0  0  0  0  0  0  0  0  0
    5.6790  -23.3220   22.0690 C   0  0  0  0  0  0  0  0  0  0  0  0
    5.5570  -24.7260   22.4050 C   0  0  0  0  0  0  0  0  0  0  0  0
    6.4980  -25.2480   23.1410 N   0  0  0  0  0  0  0  0  0  0  0  0
    6.4000  -26.5810   23.5040 C   0  0  0  0  0  0  0  0  0  0  0  0
    7.4780  -27.0490   24.3250 C   0  0  0  0  0  0  0  0  0  0  0  0
    7.6990  -28.3520   24.8230 C   0  0  0  0  0  0  0  0  0  0  0  0
    8.8170  -28.4450   25.5490 N   0  0  0  0  0  0  0  0  0  0  0  0
    9.3080  -27.1940   25.5320 N   0  0  0  0  0  0  0  0  0  0  0  0
   10.5670  -26.8010   26.1950 C   0  0  1  0  0  0  0  0  0  0  0  0
   11.5230  -25.9820   25.3020 C   0  0  0  0  0  0  0  0  0  0  0  0
   11.8270  -25.1010   26.5490 C   0  0  1  0  0  0  0  0  0  0  0  0
   12.0990  -23.5970   26.2980 C   0  0  0  0  0  0  0  0  0  0  0  0
   13.0860  -22.9920   26.7220 O   0  0  0  0  0  0  0  0  0  0  0  0
   11.1340  -22.9610   25.5460 N   0  0  0  0  0  0  0  0  0  0  0  0
   11.2300  -21.5500   25.2070 C   0  0  0  0  0  0  0  0  0  0  0  0
   10.1690  -21.1260   24.1930 C   0  0  0  0  0  0  0  0  0  0  0  0
   10.7840  -20.8280   22.9390 O   0  0  0  0  0  0  0  0  0  0  0  0
   10.4330  -25.5440   27.0810 C   0  0  0  0  0  0  0  0  0  0  0  0
    8.5440  -26.3210   24.8080 C   0  0  0  0  0  0  0  0  0  0  0  0
    5.3680  -27.3540   23.1180 C   0  0  0  0  0  0  0  0  0  0  0  0
    4.3740  -26.8170   22.3240 N   0  0  0  0  0  0  0  0  0  0  0  0
    3.2750  -27.4350   21.8320 N   0  0  0  0  0  0  0  0  0  0  0  0
    2.6790  -26.5090   21.0810 C   0  0  0  0  0  0  0  0  0  0  0  0
    3.3650  -25.2840   21.0930 C   0  0  0  0  0  0  0  0  0  0  0  0
    4.4390  -25.4960   21.9290 C   0  0  0  0  0  0  0  0  0  0  0  0
    5.8430  -22.7660   20.7770 C   0  0  0  0  0  0  0  0  0  0  0  0
    5.9220  -21.4330   20.7880 N   0  0  0  0  0  0  0  0  0  0  0  0
  1  2  1  0
  2  3  1  0
  3  4  1  0
  4  5  1  0
  3  6  1  0
  6  7  1  0
  7  8  2  0
  8  9  1  0
  9 10  2  0
 10 11  1  0
 11 12  1  0
 12 13  1  0
 13 14  2  0
 14 15  1  0
 16 15  1  6
 16 17  1  0
 17 18  1  0
 18 19  1  6
 19 20  2  0
 19 21  1  0
 21 22  1  0
 22 23  1  0
 23 24  1  0
 18 25  1  0
 15 26  1  0
 11 27  2  0
 27 28  1  0
 28 29  1  0
 29 30  2  0
 30 31  1  0
 31 32  2  0
  8 33  1  0
 33 34  2  0
 34  6  1  0
 32  9  1  0
 26 12  2  0
 32 28  1  0
 25 16  1  0
M  END
$$$$
