OAVGBZOFDPFGPJ-UHFFFAOYSA-N_3RCD_m8
     RDKit          3D

 33 38  0  0  0  0  0  0  0  0999 V2000
    6.5810    8.5480   23.0970 C   0  0  0  0  0  0  0  0  0  0  0  0
    7.8910    8.3840   23.7240 N   0  0  0  0  0  0  0  0  0  0  0  0
    8.2100    6.9510   23.8940 C   0  0  0  0  0  0  0  0  0  0  0  0
    9.5960    6.7110   24.5330 C   0  0  0  0  0  0  0  0  0  0  0  0
   10.6440    7.4490   23.8260 N   0  0  0  0  0  0  0  0  0  0  0  0
   11.9560    7.1130   24.1030 C   0  0  0  0  0  0  0  0  0  0  0  0
   12.9330    7.8920   23.6260 N   0  0  0  0  0  0  0  0  0  0  0  0
   14.2090    7.5530   23.9100 C   0  0  0  0  0  0  0  0  0  0  0  0
   15.1910    8.4840   23.3710 C   0  0  0  0  0  0  0  0  0  0  0  0
   16.1180    8.2580   22.4240 C   0  0  0  0  0  0  0  0  0  0  0  0
   16.3860    7.0650   21.6980 C   0  0  0  0  0  0  0  0  0  0  0  0
   15.6840    6.6610   20.5810 C   0  0  0  0  0  0  0  0  0  0  0  0
   16.2360    5.4910   20.1330 N   0  0  0  0  0  0  0  0  0  0  0  0
   17.2950    5.1280   20.9330 C   0  0  0  0  0  0  0  0  0  0  0  0
   18.1500    4.0230   20.8410 C   0  0  0  0  0  0  0  0  0  0  0  0
   19.1580    3.9000   21.8000 C   0  0  0  0  0  0  0  0  0  0  0  0
   19.3030    4.8450   22.8100 C   0  0  0  0  0  0  0  0  0  0  0  0
   18.4410    5.9450   22.8870 C   0  0  0  0  0  0  0  0  0  0  0  0
   17.4090    6.0950   21.9350 C   0  0  0  0  0  0  0  0  0  0  0  0
   16.8570    9.5330   22.2490 C   0  0  0  0  0  0  0  0  0  0  0  0
   17.7770    9.7530   21.4830 O   0  0  0  0  0  0  0  0  0  0  0  0
   16.3180   10.4320   23.1000 N   0  0  0  0  0  0  0  0  0  0  0  0
   15.3010    9.8860   23.7950 C   0  0  0  0  0  0  0  0  0  0  0  0
   14.5830   10.4630   24.5910 O   0  0  0  0  0  0  0  0  0  0  0  0
   14.5620    6.4460   24.6840 C   0  0  0  0  0  0  0  0  0  0  0  0
   15.8810    6.0400   25.0240 C   0  0  0  0  0  0  0  0  0  0  0  0
   16.0960    4.9130   25.8120 C   0  0  0  0  0  0  0  0  0  0  0  0
   15.0060    4.1830   26.2650 C   0  0  0  0  0  0  0  0  0  0  0  0
   13.7120    4.5870   25.9250 C   0  0  0  0  0  0  0  0  0  0  0  0
   13.4710    5.7080   25.1420 C   0  0  0  0  0  0  0  0  0  0  0  0
   12.2050    6.0360   24.8610 N   0  0  0  0  0  0  0  0  0  0  0  0
   10.3600    8.8480   23.5020 C   0  0  0  0  0  0  0  0  0  0  0  0
    8.9460    9.0090   22.8990 C   0  0  0  0  0  0  0  0  0  0  0  0
  1  2  1  0
  2  3  1  0
  3  4  1  0
  4  5  1  0
  5  6  1  0
  6  7  2  0
  7  8  1  0
  8  9  1  0
  9 10  2  0
 10 11  1  0
 11 12  2  0
 12 13  1  0
 13 14  1  0
 14 15  2  0
 15 16  1  0
 16 17  2  0
 17 18  1  0
 18 19  2  0
 10 20  1  0
 20 21  2  0
 20 22  1  0
 22 23  1  0
 23 24  2  0
  8 25  2  0
 25 26  1  0
 26 27  2  0
 27 28  1  0
 28 29  2  0
 29 30  1  0
 30 31  2  0
  5 32  1  0
 32 33  1  0
 33  2  1  0
 31  6  1  0
 23  9  1  0
 30 25  1  0
 19 11  1  0
 19 14  1  0
M  END
$$$$
