OEMOIOUFFOLZQP-TXEJJXNPSA-N_3LXP_m2
     RDKit          3D

 30 33  0  0  0  0  0  0  0  0999 V2000
   -2.4570   25.4950  -26.1020 C   0  0  0  0  0  0  0  0  0  0  0  0
   -1.8150   24.1830  -26.0490 N   0  0  0  0  0  0  0  0  0  0  0  0
   -0.4530   24.2610  -25.6830 C   0  0  0  0  0  0  0  0  0  0  0  0
    0.3950   24.9630  -26.4910 N   0  0  0  0  0  0  0  0  0  0  0  0
    1.6930   25.0880  -26.1540 C   0  0  0  0  0  0  0  0  0  0  0  0
    2.3180   24.5830  -25.0830 N   0  0  0  0  0  0  0  0  0  0  0  0
    1.4750   23.8720  -24.3230 C   0  0  0  0  0  0  0  0  0  0  0  0
    1.8470   23.2200  -23.1800 N   0  0  0  0  0  0  0  0  0  0  0  0
    0.7720   22.5550  -22.6540 C   0  0  0  0  0  0  0  0  0  0  0  0
   -0.3080   22.8010  -23.4770 C   0  0  0  0  0  0  0  0  0  0  0  0
    0.1180   23.6590  -24.5370 C   0  0  0  0  0  0  0  0  0  0  0  0
   -2.5100   23.0190  -26.5200 C   0  0  2  0  0  0  0  0  0  0  0  0
   -1.6470   22.0560  -27.3860 C   0  0  0  0  0  0  0  0  0  0  0  0
   -2.8970   21.8520  -28.2800 C   0  0  2  0  0  0  0  0  0  0  0  0
   -2.6870   21.6920  -29.7750 C   0  0  0  0  0  0  0  0  0  0  0  0
   -4.1670   21.0610  -30.5460 S   0  0  0  0  0  0  0  0  0  0  0  0
   -5.1290   20.7390  -29.5120 O   0  0  0  0  0  0  0  0  0  0  0  0
   -3.7880   20.0800  -31.5440 O   0  0  0  0  0  0  0  0  0  0  0  0
   -4.8010   22.4760  -31.4180 C   0  0  0  0  0  0  0  0  0  0  0  0
   -4.5360   23.7630  -30.9420 C   0  0  0  0  0  0  0  0  0  0  0  0
   -5.0150   24.8690  -31.6490 C   0  0  0  0  0  0  0  0  0  0  0  0
   -5.7500   24.6920  -32.8330 C   0  0  0  0  0  0  0  0  0  0  0  0
   -6.2820   25.8530  -33.6210 C   0  0  0  0  0  0  0  0  0  0  0  0
   -7.5080   25.6070  -34.1600 F   0  0  0  0  0  0  0  0  0  0  0  0
   -6.4340   26.9810  -32.8690 F   0  0  0  0  0  0  0  0  0  0  0  0
   -5.4730   26.2100  -34.6560 F   0  0  0  0  0  0  0  0  0  0  0  0
   -5.9880   23.3970  -33.2890 C   0  0  0  0  0  0  0  0  0  0  0  0
   -6.6850   23.2030  -34.4170 F   0  0  0  0  0  0  0  0  0  0  0  0
   -5.5160   22.2850  -32.5990 C   0  0  0  0  0  0  0  0  0  0  0  0
   -3.3320   23.2660  -27.8200 C   0  0  0  0  0  0  0  0  0  0  0  0
  1  2  1  0
  2  3  1  0
  3  4  2  0
  4  5  1  0
  5  6  2  0
  6  7  1  0
  7  8  1  0
  8  9  1  0
  9 10  2  0
 10 11  1  0
 12  2  1  1
 12 13  1  0
 13 14  1  0
 14 15  1  1
 15 16  1  0
 16 17  2  0
 16 18  2  0
 16 19  1  0
 19 20  2  0
 20 21  1  0
 21 22  2  0
 22 23  1  0
 23 24  1  0
 23 25  1  0
 23 26  1  0
 22 27  1  0
 27 28  1  0
 27 29  2  0
 14 30  1  0
 11  3  1  0
 30 12  1  0
 11  7  2  0
 29 19  1  0
M  END
$$$$
