OEMOIOUFFOLZQP-TXEJJXNPSA-N_6N7A_m2
     RDKit          3D

 30 33  0  0  0  0  0  0  0  0999 V2000
    7.8440  -17.9580   20.6630 C   0  0  0  0  0  0  0  0  0  0  0  0
    7.1990  -19.2590   20.4900 N   0  0  0  0  0  0  0  0  0  0  0  0
    5.8110  -19.1470   20.2530 C   0  0  0  0  0  0  0  0  0  0  0  0
    5.3860  -18.9740   18.9660 N   0  0  0  0  0  0  0  0  0  0  0  0
    4.0680  -18.8990   18.7000 C   0  0  0  0  0  0  0  0  0  0  0  0
    3.0490  -18.9590   19.5650 N   0  0  0  0  0  0  0  0  0  0  0  0
    3.4900  -19.0960   20.8220 C   0  0  0  0  0  0  0  0  0  0  0  0
    2.6680  -19.1580   21.9140 N   0  0  0  0  0  0  0  0  0  0  0  0
    3.4180  -19.2600   23.0540 C   0  0  0  0  0  0  0  0  0  0  0  0
    4.7450  -19.2740   22.6750 C   0  0  0  0  0  0  0  0  0  0  0  0
    4.8080  -19.1930   21.2500 C   0  0  0  0  0  0  0  0  0  0  0  0
    7.9300  -20.4670   20.7430 C   0  0  2  0  0  0  0  0  0  0  0  0
    7.0620  -21.7590   20.7550 C   0  0  0  0  0  0  0  0  0  0  0  0
    7.9320  -22.2480   21.9420 C   0  0  2  0  0  0  0  0  0  0  0  0
    7.2540  -23.0430   23.0430 C   0  0  0  0  0  0  0  0  0  0  0  0
    7.7450  -24.7570   22.9640 S   0  0  0  0  0  0  0  0  0  0  0  0
    8.0770  -25.2080   24.3000 O   0  0  0  0  0  0  0  0  0  0  0  0
    8.6780  -24.9230   21.8670 O   0  0  0  0  0  0  0  0  0  0  0  0
    6.2400  -25.5850   22.5000 C   0  0  0  0  0  0  0  0  0  0  0  0
    6.0190  -26.9050   22.8990 C   0  0  0  0  0  0  0  0  0  0  0  0
    4.8220  -27.5370   22.5530 C   0  0  0  0  0  0  0  0  0  0  0  0
    3.8420  -26.8510   21.8170 C   0  0  0  0  0  0  0  0  0  0  0  0
    2.5450  -27.4930   21.4250 C   0  0  0  0  0  0  0  0  0  0  0  0
    2.5340  -28.8370   21.6440 F   0  0  0  0  0  0  0  0  0  0  0  0
    1.4780  -27.0030   22.1190 F   0  0  0  0  0  0  0  0  0  0  0  0
    2.2380  -27.3160   20.1100 F   0  0  0  0  0  0  0  0  0  0  0  0
    4.0850  -25.5300   21.4440 C   0  0  0  0  0  0  0  0  0  0  0  0
    3.1660  -24.8540   20.7430 F   0  0  0  0  0  0  0  0  0  0  0  0
    5.2710  -24.8850   21.7820 C   0  0  0  0  0  0  0  0  0  0  0  0
    8.1660  -20.7490   22.2560 C   0  0  0  0  0  0  0  0  0  0  0  0
  1  2  1  0
  2  3  1  0
  3  4  2  0
  4  5  1  0
  5  6  2  0
  6  7  1  0
  7  8  1  0
  8  9  1  0
  9 10  2  0
 10 11  1  0
 12  2  1  6
 12 13  1  0
 13 14  1  0
 14 15  1  6
 15 16  1  0
 16 17  2  0
 16 18  2  0
 16 19  1  0
 19 20  2  0
 20 21  1  0
 21 22  2  0
 22 23  1  0
 23 24  1  0
 23 25  1  0
 23 26  1  0
 22 27  1  0
 27 28  1  0
 27 29  2  0
 14 30  1  0
 11  3  1  0
 30 12  1  0
 11  7  2  0
 29 19  1  0
M  END
$$$$
