OHNNFCNGTAKEOI-ZSOGYDGISA-N_3LXP_m3
     RDKit          3D

 31 35  0  0  0  0  0  0  0  0999 V2000
   -4.4080   32.0010  -26.3960 C   0  0  0  0  0  0  0  0  0  0  0  0
   -4.1310   30.8950  -27.3360 C   0  0  0  0  0  0  0  0  0  0  0  0
   -4.1400   30.8290  -28.7120 C   0  0  0  0  0  0  0  0  0  0  0  0
   -3.8070   29.4950  -29.0360 C   0  0  0  0  0  0  0  0  0  0  0  0
   -3.6520   28.9580  -30.2590 N   0  0  0  0  0  0  0  0  0  0  0  0
   -4.1350   27.8430  -30.9400 C   0  0  0  0  0  0  0  0  0  0  0  0
   -3.4010   26.7260  -30.7330 N   0  0  0  0  0  0  0  0  0  0  0  0
   -3.7510   25.5700  -31.3310 C   0  0  0  0  0  0  0  0  0  0  0  0
   -2.9570   24.4520  -31.0940 N   0  0  0  0  0  0  0  0  0  0  0  0
   -3.1740   23.6220  -29.9120 C   0  0  2  0  0  0  0  0  0  0  0  0
   -3.6010   24.5300  -28.7400 C   0  0  0  0  0  0  0  0  0  0  0  0
   -3.4940   23.8140  -27.3830 C   0  0  1  0  0  0  0  0  0  0  0  0
   -4.2450   22.4800  -27.3530 C   0  0  0  0  0  0  0  0  0  0  0  0
   -3.2450   21.4490  -27.8830 C   0  0  0  0  0  0  0  0  0  0  0  0
   -1.9570   22.2400  -28.1450 C   0  0  1  0  0  0  0  0  0  0  0  0
   -1.9060   22.8120  -29.5730 C   0  0  0  0  0  0  0  0  0  0  0  0
   -2.0620   23.4230  -27.2450 N   0  0  0  0  0  0  0  0  0  0  0  0
   -1.4700   23.2850  -25.6610 S   0  0  0  0  0  0  0  0  0  0  0  0
    0.1380   24.0350  -25.8160 C   0  0  0  0  0  0  0  0  0  0  0  0
   -2.2730   24.1440  -24.8180 O   0  0  0  0  0  0  0  0  0  0  0  0
   -1.3000   21.8820  -25.3550 O   0  0  0  0  0  0  0  0  0  0  0  0
   -4.8560   25.4900  -32.2060 C   0  0  0  0  0  0  0  0  0  0  0  0
   -5.2370   24.3250  -32.9110 C   0  0  0  0  0  0  0  0  0  0  0  0
   -6.3530   24.3280  -33.7380 C   0  0  0  0  0  0  0  0  0  0  0  0
   -7.0660   25.5000  -33.8440 C   0  0  0  0  0  0  0  0  0  0  0  0
   -6.7310   26.6360  -33.1980 N   0  0  0  0  0  0  0  0  0  0  0  0
   -5.6380   26.6420  -32.3980 C   0  0  0  0  0  0  0  0  0  0  0  0
   -5.2670   27.8090  -31.7440 C   0  0  0  0  0  0  0  0  0  0  0  0
   -6.0580   28.8870  -31.8670 F   0  0  0  0  0  0  0  0  0  0  0  0
   -3.5500   28.7890  -27.9290 N   0  0  0  0  0  0  0  0  0  0  0  0
   -3.7900   29.6410  -26.9230 N   0  0  0  0  0  0  0  0  0  0  0  0
  1  2  1  0
  2  3  2  0
  3  4  1  0
  4  5  1  0
  5  6  1  0
  6  7  2  0
  7  8  1  0
  8  9  1  0
 10  9  1  6
 10 11  1  0
 12 11  1  6
 12 13  1  0
 13 14  1  0
 15 14  1  6
 15 16  1  0
 15 17  1  0
 17 18  1  0
 18 19  1  0
 18 20  2  0
 18 21  2  0
  8 22  2  0
 22 23  1  0
 23 24  2  0
 24 25  1  0
 25 26  2  0
 26 27  1  0
 27 28  2  0
 28 29  1  0
  4 30  2  0
 30 31  1  0
 31  2  1  0
 28  6  1  0
 16 10  1  0
 27 22  1  0
 17 12  1  0
M  END
$$$$
