OLAPRRPHWILKIM-UHFFFAOYSA-N_6LXA_m2
     RDKit          3D

 33 35  0  0  0  0  0  0  0  0999 V2000
    9.9080    2.9540  -10.8970 C   0  0  0  0  0  0  0  0  0  0  0  0
   10.1280    4.3180  -10.3130 C   0  0  0  0  0  0  0  0  0  0  0  0
   10.1470    4.5040   -8.9320 C   0  0  0  0  0  0  0  0  0  0  0  0
   10.3240    5.7800   -8.3890 C   0  0  0  0  0  0  0  0  0  0  0  0
   10.4740    6.9000   -9.2140 C   0  0  0  0  0  0  0  0  0  0  0  0
   10.6570    8.1960   -8.6940 N   0  0  0  0  0  0  0  0  0  0  0  0
    9.7650    8.9870   -7.9900 C   0  0  0  0  0  0  0  0  0  0  0  0
    8.6070    8.7190   -7.6860 O   0  0  0  0  0  0  0  0  0  0  0  0
   10.4230   10.2950   -7.5300 C   0  0  0  0  0  0  0  0  0  0  0  0
    9.4160   11.1720   -6.8730 N   0  0  0  0  0  0  0  0  0  0  0  0
    9.5360   11.0420   -5.4050 C   0  0  0  0  0  0  0  0  0  0  0  0
    8.2400   10.6140   -4.7510 C   0  0  0  0  0  0  0  0  0  0  0  0
    8.1210   10.5670   -3.3560 C   0  0  0  0  0  0  0  0  0  0  0  0
    6.9220   10.1700   -2.7480 C   0  0  0  0  0  0  0  0  0  0  0  0
    5.8230    9.8130   -3.5250 C   0  0  0  0  0  0  0  0  0  0  0  0
    4.5960    9.4080   -3.0880 O   0  0  0  0  0  0  0  0  0  0  0  0
    4.3300    8.0740   -2.6520 C   0  0  0  0  0  0  0  0  0  0  0  0
    5.5630    7.1810   -2.8620 C   0  0  0  0  0  0  0  0  0  0  0  0
    3.2310    7.5610   -3.6060 C   0  0  0  0  0  0  0  0  0  0  0  0
    3.7610    7.9220   -1.2290 C   0  0  0  0  0  0  0  0  0  0  0  0
    2.7620    7.2960   -0.9090 O   0  0  0  0  0  0  0  0  0  0  0  0
    4.4810    8.5600   -0.2850 O   0  0  0  0  0  0  0  0  0  0  0  0
    5.9420    9.8540   -4.9170 C   0  0  0  0  0  0  0  0  0  0  0  0
    7.1360   10.2450   -5.5270 C   0  0  0  0  0  0  0  0  0  0  0  0
    9.6110   12.5710   -7.3000 C   0  0  0  0  0  0  0  0  0  0  0  0
   10.7950   13.1670   -6.6160 C   0  0  0  0  0  0  0  0  0  0  0  0
   10.9710   13.7480   -5.3760 C   0  0  0  0  0  0  0  0  0  0  0  0
   12.3320   14.1290   -5.3070 C   0  0  0  0  0  0  0  0  0  0  0  0
   12.8970   13.7610   -6.5040 C   0  0  0  0  0  0  0  0  0  0  0  0
   11.9710   13.1740   -7.3060 O   0  0  0  0  0  0  0  0  0  0  0  0
   10.4430    6.7250  -10.6150 C   0  0  0  0  0  0  0  0  0  0  0  0
   10.5950    7.8770  -11.5710 C   0  0  0  0  0  0  0  0  0  0  0  0
   10.2630    5.4330  -11.1470 C   0  0  0  0  0  0  0  0  0  0  0  0
  1  2  1  0
  2  3  2  0
  3  4  1  0
  4  5  2  0
  5  6  1  0
  6  7  1  0
  7  8  2  0
  7  9  1  0
  9 10  1  0
 10 11  1  0
 11 12  1  0
 12 13  2  0
 13 14  1  0
 14 15  2  0
 15 16  1  0
 16 17  1  0
 17 18  1  0
 17 19  1  0
 17 20  1  0
 20 21  2  0
 20 22  1  0
 15 23  1  0
 23 24  2  0
 10 25  1  0
 25 26  1  0
 26 27  2  0
 27 28  1  0
 28 29  2  0
 29 30  1  0
  5 31  1  0
 31 32  1  0
 31 33  2  0
 33  2  1  0
 24 12  1  0
 30 26  1  0
M  END
$$$$
