OLAPRRPHWILKIM-UHFFFAOYSA-N_6LXA_m5
     RDKit          3D

 33 35  0  0  0  0  0  0  0  0999 V2000
    9.9320    2.9420  -10.9070 C   0  0  0  0  0  0  0  0  0  0  0  0
   10.1130    4.2750  -10.2430 C   0  0  0  0  0  0  0  0  0  0  0  0
   10.0500    4.3910   -8.8550 C   0  0  0  0  0  0  0  0  0  0  0  0
   10.1900    5.6370   -8.2390 C   0  0  0  0  0  0  0  0  0  0  0  0
   10.3850    6.7980   -8.9960 C   0  0  0  0  0  0  0  0  0  0  0  0
   10.5320    8.0660   -8.4010 N   0  0  0  0  0  0  0  0  0  0  0  0
    9.5840    8.8420   -7.7560 C   0  0  0  0  0  0  0  0  0  0  0  0
    8.3970    8.5830   -7.5840 O   0  0  0  0  0  0  0  0  0  0  0  0
   10.2100   10.1160   -7.1720 C   0  0  0  0  0  0  0  0  0  0  0  0
    9.1450   11.0350   -6.6880 N   0  0  0  0  0  0  0  0  0  0  0  0
    9.1390   11.0430   -5.2100 C   0  0  0  0  0  0  0  0  0  0  0  0
    7.8580   10.4840   -4.6300 C   0  0  0  0  0  0  0  0  0  0  0  0
    6.7990   10.1000   -5.4630 C   0  0  0  0  0  0  0  0  0  0  0  0
    5.6120    9.5820   -4.9280 C   0  0  0  0  0  0  0  0  0  0  0  0
    5.4630    9.4400   -3.5510 C   0  0  0  0  0  0  0  0  0  0  0  0
    4.3790    8.9560   -2.8800 O   0  0  0  0  0  0  0  0  0  0  0  0
    3.8980    7.6210   -3.0450 C   0  0  0  0  0  0  0  0  0  0  0  0
    2.9910    7.5230   -4.2820 C   0  0  0  0  0  0  0  0  0  0  0  0
    3.0090    7.3680   -1.8100 C   0  0  0  0  0  0  0  0  0  0  0  0
    4.9610    6.5060   -3.0370 C   0  0  0  0  0  0  0  0  0  0  0  0
    5.3240    5.8410   -3.9950 O   0  0  0  0  0  0  0  0  0  0  0  0
    5.5150    6.2930   -1.8260 O   0  0  0  0  0  0  0  0  0  0  0  0
    6.5160    9.8280   -2.7180 C   0  0  0  0  0  0  0  0  0  0  0  0
    7.7000   10.3490   -3.2470 C   0  0  0  0  0  0  0  0  0  0  0  0
    9.3680   12.3910   -7.2250 C   0  0  0  0  0  0  0  0  0  0  0  0
   10.7540   12.8520   -6.9260 C   0  0  0  0  0  0  0  0  0  0  0  0
   11.9840   12.5540   -7.4770 C   0  0  0  0  0  0  0  0  0  0  0  0
   12.9370   13.3100   -6.7550 C   0  0  0  0  0  0  0  0  0  0  0  0
   12.2310   14.0170   -5.8100 C   0  0  0  0  0  0  0  0  0  0  0  0
   10.9040   13.7470   -5.9070 O   0  0  0  0  0  0  0  0  0  0  0  0
   10.4370    6.6940  -10.4030 C   0  0  0  0  0  0  0  0  0  0  0  0
   10.6410    7.8930  -11.2900 C   0  0  0  0  0  0  0  0  0  0  0  0
   10.2930    5.4310  -11.0100 C   0  0  0  0  0  0  0  0  0  0  0  0
  1  2  1  0
  2  3  2  0
  3  4  1  0
  4  5  2  0
  5  6  1  0
  6  7  1  0
  7  8  2  0
  7  9  1  0
  9 10  1  0
 10 11  1  0
 11 12  1  0
 12 13  2  0
 13 14  1  0
 14 15  2  0
 15 16  1  0
 16 17  1  0
 17 18  1  0
 17 19  1  0
 17 20  1  0
 20 21  2  0
 20 22  1  0
 15 23  1  0
 23 24  2  0
 10 25  1  0
 25 26  1  0
 26 27  2  0
 27 28  1  0
 28 29  2  0
 29 30  1  0
  5 31  1  0
 31 32  1  0
 31 33  2  0
 33  2  1  0
 24 12  1  0
 30 26  1  0
M  END
$$$$
