OLSNNSDAOCWUDV-UHFFFAOYSA-N_6LXA_m3
     RDKit          3D

 34 36  0  0  0  0  0  0  0  0999 V2000
    8.7340    3.2980   -3.0950 C   0  0  0  0  0  0  0  0  0  0  0  0
    9.4600    3.4760   -4.4210 C   0  0  0  0  0  0  0  0  0  0  0  0
    8.5460    3.3130   -5.6390 C   0  0  0  0  0  0  0  0  0  0  0  0
    8.0890    4.5820   -6.1750 N   0  0  0  0  0  0  0  0  0  0  0  0
    8.6520    5.3950   -7.0900 C   0  0  0  0  0  0  0  0  0  0  0  0
    9.9330    5.0630   -7.8030 C   0  0  0  0  0  0  0  0  0  0  0  0
    9.6850    4.1670   -9.0200 C   0  0  0  0  0  0  0  0  0  0  0  0
   10.8790    4.0320   -9.9740 C   0  0  0  0  0  0  0  0  0  0  0  0
   10.9950    5.1630  -10.9630 C   0  0  0  0  0  0  0  0  0  0  0  0
    9.8680    5.6380  -11.6410 C   0  0  0  0  0  0  0  0  0  0  0  0
    9.9890    6.6840  -12.5600 C   0  0  0  0  0  0  0  0  0  0  0  0
   11.2310    7.2650  -12.8300 C   0  0  0  0  0  0  0  0  0  0  0  0
   11.1870    8.2660  -13.7550 O   0  0  0  0  0  0  0  0  0  0  0  0
   11.4370    9.6350  -13.4170 C   0  0  0  0  0  0  0  0  0  0  0  0
   12.9430    9.8940  -13.2470 C   0  0  0  0  0  0  0  0  0  0  0  0
   10.9650   10.4100  -14.6630 C   0  0  0  0  0  0  0  0  0  0  0  0
   10.5940   10.1910  -12.2540 C   0  0  0  0  0  0  0  0  0  0  0  0
   10.9870   10.5160  -11.1440 O   0  0  0  0  0  0  0  0  0  0  0  0
    9.2740   10.2690  -12.5300 O   0  0  0  0  0  0  0  0  0  0  0  0
   12.3510    6.8030  -12.1470 C   0  0  0  0  0  0  0  0  0  0  0  0
   12.2340    5.7600  -11.2210 C   0  0  0  0  0  0  0  0  0  0  0  0
    7.9780    6.4810   -7.3420 N   0  0  0  0  0  0  0  0  0  0  0  0
    6.8680    6.3730   -6.5400 N   0  0  0  0  0  0  0  0  0  0  0  0
    5.7750    7.3130   -6.5670 C   0  0  0  0  0  0  0  0  0  0  0  0
    5.8620    8.3030   -5.4310 C   0  0  0  0  0  0  0  0  0  0  0  0
    6.7380    9.3910   -5.4990 C   0  0  0  0  0  0  0  0  0  0  0  0
    6.7930   10.3180   -4.4580 C   0  0  0  0  0  0  0  0  0  0  0  0
    5.9680   10.1700   -3.3400 C   0  0  0  0  0  0  0  0  0  0  0  0
    5.0800    9.0970   -3.2610 C   0  0  0  0  0  0  0  0  0  0  0  0
    4.2170    8.8410   -2.2320 O   0  0  0  0  0  0  0  0  0  0  0  0
    4.0180    7.4760   -1.8870 C   0  0  0  0  0  0  0  0  0  0  0  0
    5.0290    8.1720   -4.3090 C   0  0  0  0  0  0  0  0  0  0  0  0
    6.9110    5.1890   -5.8080 C   0  0  0  0  0  0  0  0  0  0  0  0
    6.0820    4.7750   -5.0130 O   0  0  0  0  0  0  0  0  0  0  0  0
  1  2  1  0
  2  3  1  0
  3  4  1  0
  4  5  1  0
  5  6  1  0
  6  7  1  0
  7  8  1  0
  8  9  1  0
  9 10  2  0
 10 11  1  0
 11 12  2  0
 12 13  1  0
 13 14  1  0
 14 15  1  0
 14 16  1  0
 14 17  1  0
 17 18  2  0
 17 19  1  0
 12 20  1  0
 20 21  2  0
  5 22  2  0
 22 23  1  0
 23 24  1  0
 24 25  1  0
 25 26  2  0
 26 27  1  0
 27 28  2  0
 28 29  1  0
 29 30  1  0
 30 31  1  0
 29 32  2  0
 23 33  1  0
 33 34  2  0
 33  4  1  0
 21  9  1  0
 32 25  1  0
M  END
$$$$
