OLVBAUVSICCWEJ-UHFFFAOYSA-N_3POZ_m5
     RDKit          3D

 36 40  0  0  0  0  0  0  0  0999 V2000
   26.8030   32.9300   20.7850 C   0  0  0  0  0  0  0  0  0  0  0  0
   25.4120   32.9730   21.0690 O   0  0  0  0  0  0  0  0  0  0  0  0
   24.6280   33.6880   20.2000 C   0  0  0  0  0  0  0  0  0  0  0  0
   24.3020   33.3260   18.8920 C   0  0  0  0  0  0  0  0  0  0  0  0
   23.4810   34.1510   18.0970 C   0  0  0  0  0  0  0  0  0  0  0  0
   23.1420   33.7650   16.7220 C   0  0  0  0  0  0  0  0  0  0  0  0
   24.0940   33.2120   15.8720 C   0  0  0  0  0  0  0  0  0  0  0  0
   23.7480   32.8700   14.5640 C   0  0  0  0  0  0  0  0  0  0  0  0
   22.4390   33.0600   14.0540 C   0  0  0  0  0  0  0  0  0  0  0  0
   21.4640   33.6000   14.8910 C   0  0  0  0  0  0  0  0  0  0  0  0
   21.8440   33.9450   16.2170 C   0  0  0  0  0  0  0  0  0  0  0  0
   20.1270   33.8520   14.5640 N   0  0  0  0  0  0  0  0  0  0  0  0
   19.3670   33.7130   13.4000 C   0  0  0  0  0  0  0  0  0  0  0  0
   18.0090   34.0980   13.4890 C   0  0  0  0  0  0  0  0  0  0  0  0
   17.1410   34.0280   12.3990 C   0  0  0  0  0  0  0  0  0  0  0  0
   17.6200   33.5820   11.1740 C   0  0  0  0  0  0  0  0  0  0  0  0
   16.6890   33.5350   10.0180 C   0  0  0  0  0  0  0  0  0  0  0  0
   16.1030   34.5500    9.6580 O   0  0  0  0  0  0  0  0  0  0  0  0
   16.5780   32.3210    9.3800 N   0  0  0  0  0  0  0  0  0  0  0  0
   15.6960   32.1540    8.2490 C   0  0  0  0  0  0  0  0  0  0  0  0
   15.9240   30.8150    7.5980 C   0  0  0  0  0  0  0  0  0  0  0  0
   17.2200   30.3970    7.2540 C   0  0  0  0  0  0  0  0  0  0  0  0
   17.4260   29.1730    6.6120 C   0  0  0  0  0  0  0  0  0  0  0  0
   16.3380   28.3580    6.3000 C   0  0  0  0  0  0  0  0  0  0  0  0
   15.0540   28.7760    6.6310 C   0  0  0  0  0  0  0  0  0  0  0  0
   14.0070   27.9950    6.3240 F   0  0  0  0  0  0  0  0  0  0  0  0
   14.8360   29.9930    7.2700 C   0  0  0  0  0  0  0  0  0  0  0  0
   18.9510   33.1700   11.0710 C   0  0  0  0  0  0  0  0  0  0  0  0
   19.8290   33.2290   12.1750 C   0  0  0  0  0  0  0  0  0  0  0  0
   21.1190   32.7670   11.9130 N   0  0  0  0  0  0  0  0  0  0  0  0
   22.2610   32.6490   12.6440 C   0  0  0  0  0  0  0  0  0  0  0  0
   23.2240   32.1590   12.0390 O   0  0  0  0  0  0  0  0  0  0  0  0
   22.9920   35.3490   18.6450 C   0  0  0  0  0  0  0  0  0  0  0  0
   23.3170   35.7210   19.9490 C   0  0  0  0  0  0  0  0  0  0  0  0
   24.1290   34.8910   20.7090 C   0  0  0  0  0  0  0  0  0  0  0  0
   24.4340   35.2770   21.9850 O   0  0  0  0  0  0  0  0  0  0  0  0
  1  2  1  0
  2  3  1  0
  3  4  2  0
  4  5  1  0
  5  6  1  0
  6  7  2  0
  7  8  1  0
  8  9  2  0
  9 10  1  0
 10 11  2  0
 10 12  1  0
 12 13  1  0
 13 14  2  0
 14 15  1  0
 15 16  2  0
 16 17  1  0
 17 18  2  0
 17 19  1  0
 19 20  1  0
 20 21  1  0
 21 22  2  0
 22 23  1  0
 23 24  2  0
 24 25  1  0
 25 26  1  0
 25 27  2  0
 16 28  1  0
 28 29  2  0
 29 30  1  0
 30 31  1  0
 31 32  2  0
  5 33  2  0
 33 34  1  0
 34 35  2  0
 35 36  1  0
 35  3  1  0
 11  6  1  0
 29 13  1  0
 31  9  1  0
 27 21  1  0
M  END
$$$$
