OOTOILRGUDIKTF-UHFFFAOYSA-N_3LXP_m8
     RDKit          3D

 31 34  0  0  0  0  0  0  0  0999 V2000
   -3.8590   29.4120  -28.8780 C   0  0  0  0  0  0  0  0  0  0  0  0
   -3.7530   28.9200  -30.3190 C   0  0  0  0  0  0  0  0  0  0  0  0
   -5.0630   28.2870  -30.8300 C   0  0  0  0  0  0  0  0  0  0  0  0
   -5.6380   29.0090  -32.0660 C   0  0  0  0  0  0  0  0  0  0  0  0
   -5.6410   30.5290  -32.0020 C   0  0  0  0  0  0  0  0  0  0  0  0
   -4.9610   26.8440  -31.0470 N   0  0  0  0  0  0  0  0  0  0  0  0
   -4.3410   25.9480  -30.2240 C   0  0  0  0  0  0  0  0  0  0  0  0
   -4.4660   24.7020  -30.8140 C   0  0  0  0  0  0  0  0  0  0  0  0
   -3.9640   23.4560  -30.2690 C   0  0  0  0  0  0  0  0  0  0  0  0
   -3.2640   23.5170  -29.1720 N   0  0  0  0  0  0  0  0  0  0  0  0
   -2.8060   22.3420  -28.6000 C   0  0  0  0  0  0  0  0  0  0  0  0
   -2.0680   22.5320  -27.3880 C   0  0  0  0  0  0  0  0  0  0  0  0
   -1.8850   21.6150  -26.3260 C   0  0  0  0  0  0  0  0  0  0  0  0
   -1.1340   22.1110  -25.3370 N   0  0  0  0  0  0  0  0  0  0  0  0
   -0.8220   23.3490  -25.7730 N   0  0  0  0  0  0  0  0  0  0  0  0
    0.0280   24.2060  -24.9540 C   0  0  0  0  0  0  0  0  0  0  0  0
   -0.1970   25.6960  -25.2720 C   0  0  1  0  0  0  0  0  0  0  0  0
   -1.0500   26.2650  -24.2640 O   0  0  0  0  0  0  0  0  0  0  0  0
    1.1100   26.5460  -25.3520 C   0  0  0  0  0  0  0  0  0  0  0  0
    1.2700   27.1750  -26.7490 C   0  0  0  0  0  0  0  0  0  0  0  0
    2.3570   25.6960  -25.0390 C   0  0  0  0  0  0  0  0  0  0  0  0
    1.0390   27.6930  -24.3190 C   0  0  0  0  0  0  0  0  0  0  0  0
   -1.3670   23.6510  -26.9900 C   0  0  0  0  0  0  0  0  0  0  0  0
   -3.0550   21.1390  -29.1450 C   0  0  0  0  0  0  0  0  0  0  0  0
   -3.7740   21.0600  -30.3220 N   0  0  0  0  0  0  0  0  0  0  0  0
   -4.1050   19.9500  -31.0230 N   0  0  0  0  0  0  0  0  0  0  0  0
   -4.7290   20.4140  -32.1060 C   0  0  0  0  0  0  0  0  0  0  0  0
   -4.8300   21.8150  -32.1110 C   0  0  0  0  0  0  0  0  0  0  0  0
   -4.2370   22.2080  -30.9330 C   0  0  0  0  0  0  0  0  0  0  0  0
   -5.2150   24.9720  -31.9810 C   0  0  0  0  0  0  0  0  0  0  0  0
   -5.4970   26.2670  -32.1370 N   0  0  0  0  0  0  0  0  0  0  0  0
  1  2  1  0
  2  3  1  0
  3  4  1  0
  4  5  1  0
  3  6  1  0
  6  7  1  0
  7  8  2  0
  8  9  1  0
  9 10  2  0
 10 11  1  0
 11 12  1  0
 12 13  1  0
 13 14  2  0
 14 15  1  0
 15 16  1  0
 16 17  1  0
 17 18  1  1
 17 19  1  0
 19 20  1  0
 19 21  1  0
 19 22  1  0
 15 23  1  0
 11 24  2  0
 24 25  1  0
 25 26  1  0
 26 27  2  0
 27 28  1  0
 28 29  2  0
  8 30  1  0
 30 31  2  0
 31  6  1  0
 29  9  1  0
 23 12  2  0
 29 25  1  0
M  END
$$$$
