OPMGLKXWFJUOCJ-WTHWOSCZSA-N_4UDW_m9
     RDKit          3D

 37 39  0  0  0  0  0  0  0  0999 V2000
  130.5410  -18.9690  167.0410 C   0  0  0  0  0  0  0  0  0  0  0  0
  131.4510  -19.1140  165.8450 C   0  0  0  0  0  0  0  0  0  0  0  0
  132.8200  -18.7540  165.9510 C   0  0  0  0  0  0  0  0  0  0  0  0
  133.3810  -18.3760  167.1610 N   0  0  0  0  0  0  0  0  0  0  0  0
  133.9990  -19.4280  167.9780 C   0  0  0  0  0  0  0  0  0  0  0  0
  135.2240  -18.7530  168.5910 C   0  0  0  0  0  0  0  0  0  0  0  0
  134.7750  -17.3100  168.7370 C   0  0  0  0  0  0  0  0  0  0  0  0
  134.0140  -17.0640  167.4250 C   0  0  2  0  0  0  0  0  0  0  0  0
  132.9890  -15.9360  167.5910 C   0  0  0  0  0  0  0  0  0  0  0  0
  133.6250  -14.6780  167.8060 O   0  0  0  0  0  0  0  0  0  0  0  0
  133.6190  -18.8200  164.7950 C   0  0  0  0  0  0  0  0  0  0  0  0
  133.1170  -19.2560  163.5720 C   0  0  0  0  0  0  0  0  0  0  0  0
  131.7940  -19.6590  163.4770 C   0  0  0  0  0  0  0  0  0  0  0  0
  130.9620  -19.6010  164.6050 C   0  0  0  0  0  0  0  0  0  0  0  0
  129.2950  -20.2120  164.3880 S   0  0  0  0  0  0  0  0  0  0  0  0
  128.9850  -21.1500  165.4450 O   0  0  0  0  0  0  0  0  0  0  0  0
  129.0810  -20.5580  163.0030 O   0  0  0  0  0  0  0  0  0  0  0  0
  128.3930  -18.8090  164.6720 N   0  0  0  0  0  0  0  0  0  0  0  0
  128.1790  -17.9380  163.4700 C   0  0  1  0  0  0  0  0  0  0  0  0
  126.7300  -17.4350  163.4550 C   0  0  0  0  0  0  0  0  0  0  0  0
  126.5750  -16.0980  164.0110 N   0  0  0  0  0  0  0  0  0  0  0  0
  125.7380  -15.1700  163.4210 C   0  0  0  0  0  0  0  0  0  0  0  0
  125.0690  -15.4720  162.4340 O   0  0  0  0  0  0  0  0  0  0  0  0
  125.7220  -13.8620  164.0560 C   0  0  0  0  0  0  0  0  0  0  0  0
  126.4810  -12.7330  163.7910 C   0  0  0  0  0  0  0  0  0  0  0  0
  126.1580  -11.6410  164.6550 C   0  0  0  0  0  0  0  0  0  0  0  0
  125.1710  -11.9910  165.5390 C   0  0  0  0  0  0  0  0  0  0  0  0
  124.4990  -10.9980  166.7680 Cl  0  0  0  0  0  0  0  0  0  0  0  0
  124.6060  -13.5680  165.3280 S   0  0  0  0  0  0  0  0  0  0  0  0
  129.1080  -16.7370  163.5700 C   0  0  0  0  0  0  0  0  0  0  0  0
  129.4930  -16.2600  164.6340 O   0  0  0  0  0  0  0  0  0  0  0  0
  129.3960  -16.2310  162.3400 O   0  0  0  0  0  0  0  0  0  0  0  0
  129.1400  -14.8230  162.1700 C   0  0  0  0  0  0  0  0  0  0  0  0
  129.4510  -14.3710  160.7480 C   0  0  0  0  0  0  0  0  0  0  0  0
  127.9710  -14.5020  159.7060 S   0  0  0  0  0  0  0  0  0  0  0  0
  128.7330  -13.8140  158.2150 C   0  0  0  0  0  0  0  0  0  0  0  0
  126.8740  -13.3900  160.2620 O   0  0  0  0  0  0  0  0  0  0  0  0
  1  2  1  0
  2  3  2  0
  3  4  1  0
  4  5  1  0
  5  6  1  0
  6  7  1  0
  7  8  1  0
  8  9  1  1
  9 10  1  0
  3 11  1  0
 11 12  2  0
 12 13  1  0
 13 14  2  0
 14 15  1  0
 15 16  2  0
 15 17  2  0
 15 18  1  0
 18 19  1  0
 19 20  1  1
 20 21  1  0
 21 22  1  0
 22 23  2  0
 22 24  1  0
 24 25  2  0
 25 26  1  0
 26 27  2  0
 27 28  1  0
 27 29  1  0
 19 30  1  0
 30 31  2  0
 30 32  1  0
 32 33  1  0
 33 34  1  0
 34 35  1  0
 35 36  1  6
 35 37  1  0
 14  2  1  0
 29 24  1  0
  8  4  1  0
M  CHG  2  35   1  37  -1
M  END
$$$$
