OPMGLKXWFJUOCJ-WTHWOSCZSA-N_4UDW_m1
     RDKit          3D

 37 39  0  0  0  0  0  0  0  0999 V2000
  130.4720  -16.7790  165.8620 C   0  0  0  0  0  0  0  0  0  0  0  0
  131.3380  -16.1870  164.7770 C   0  0  0  0  0  0  0  0  0  0  0  0
  132.7510  -16.3080  164.8560 C   0  0  0  0  0  0  0  0  0  0  0  0
  133.3620  -17.0600  165.8480 N   0  0  0  0  0  0  0  0  0  0  0  0
  133.7220  -18.4450  165.5230 C   0  0  0  0  0  0  0  0  0  0  0  0
  135.0540  -18.6620  166.2350 C   0  0  0  0  0  0  0  0  0  0  0  0
  134.9310  -17.7720  167.4590 C   0  0  0  0  0  0  0  0  0  0  0  0
  134.2630  -16.5120  166.8880 C   0  0  2  0  0  0  0  0  0  0  0  0
  133.5070  -15.7490  167.9820 C   0  0  0  0  0  0  0  0  0  0  0  0
  133.7970  -14.3530  167.9420 O   0  0  0  0  0  0  0  0  0  0  0  0
  133.5310  -15.6710  163.8750 C   0  0  0  0  0  0  0  0  0  0  0  0
  132.9610  -14.9610  162.8220 C   0  0  0  0  0  0  0  0  0  0  0  0
  131.5820  -14.8840  162.7120 C   0  0  0  0  0  0  0  0  0  0  0  0
  130.7680  -15.5000  163.6740 C   0  0  0  0  0  0  0  0  0  0  0  0
  129.0040  -15.4000  163.3960 S   0  0  0  0  0  0  0  0  0  0  0  0
  128.3720  -14.7770  164.5390 O   0  0  0  0  0  0  0  0  0  0  0  0
  128.5220  -16.6570  162.8770 O   0  0  0  0  0  0  0  0  0  0  0  0
  128.9360  -14.2990  162.1140 N   0  0  0  0  0  0  0  0  0  0  0  0
  128.2080  -14.7870  160.8970 C   0  0  1  0  0  0  0  0  0  0  0  0
  126.7870  -14.2060  160.8860 C   0  0  0  0  0  0  0  0  0  0  0  0
  126.3950  -13.6080  162.1540 N   0  0  0  0  0  0  0  0  0  0  0  0
  125.5100  -14.2460  163.0030 C   0  0  0  0  0  0  0  0  0  0  0  0
  125.0680  -15.3590  162.7220 O   0  0  0  0  0  0  0  0  0  0  0  0
  125.1720  -13.5080  164.2090 C   0  0  0  0  0  0  0  0  0  0  0  0
  124.3620  -13.8640  165.2750 C   0  0  0  0  0  0  0  0  0  0  0  0
  124.2870  -12.8420  166.2710 C   0  0  0  0  0  0  0  0  0  0  0  0
  125.0420  -11.7540  165.9160 C   0  0  0  0  0  0  0  0  0  0  0  0
  125.2160  -10.2960  166.8050 Cl  0  0  0  0  0  0  0  0  0  0  0  0
  125.8570  -11.9510  164.4510 S   0  0  0  0  0  0  0  0  0  0  0  0
  128.9430  -14.2910  159.6610 C   0  0  0  0  0  0  0  0  0  0  0  0
  129.9700  -13.6200  159.7020 O   0  0  0  0  0  0  0  0  0  0  0  0
  128.2800  -14.6320  158.5220 O   0  0  0  0  0  0  0  0  0  0  0  0
  128.1290  -13.5800  157.5500 C   0  0  0  0  0  0  0  0  0  0  0  0
  127.8260  -14.1420  156.1660 C   0  0  0  0  0  0  0  0  0  0  0  0
  129.2810  -13.9920  155.0920 S   0  0  0  0  0  0  0  0  0  0  0  0
  129.9920  -15.6020  155.5180 C   0  0  0  0  0  0  0  0  0  0  0  0
  130.2620  -12.8270  155.7470 O   0  0  0  0  0  0  0  0  0  0  0  0
  1  2  1  0
  2  3  2  0
  3  4  1  0
  4  5  1  0
  5  6  1  0
  6  7  1  0
  7  8  1  0
  8  9  1  1
  9 10  1  0
  3 11  1  0
 11 12  2  0
 12 13  1  0
 13 14  2  0
 14 15  1  0
 15 16  2  0
 15 17  2  0
 15 18  1  0
 18 19  1  0
 19 20  1  1
 20 21  1  0
 21 22  1  0
 22 23  2  0
 22 24  1  0
 24 25  2  0
 25 26  1  0
 26 27  2  0
 27 28  1  0
 27 29  1  0
 19 30  1  0
 30 31  2  0
 30 32  1  0
 32 33  1  0
 33 34  1  0
 34 35  1  0
 35 36  1  1
 35 37  1  0
 14  2  1  0
 29 24  1  0
  8  4  1  0
M  CHG  2  35   1  37  -1
M  END
$$$$
