OSHRLMBZRPMAQZ-UHFFFAOYSA-N_3POZ_m1
     RDKit          3D

 28 32  0  0  0  0  0  0  0  0999 V2000
   21.6690   33.6330   14.8940 C   0  0  0  0  0  0  0  0  0  0  0  0
   21.1940   34.9410   14.9390 C   0  0  0  0  0  0  0  0  0  0  0  0
   19.8750   35.2220   14.5770 C   0  0  0  0  0  0  0  0  0  0  0  0
   19.0060   34.1950   14.1720 C   0  0  0  0  0  0  0  0  0  0  0  0
   17.5560   34.4540   13.7470 C   0  0  0  0  0  0  0  0  0  0  0  0
   16.5740   34.3800   14.9160 C   0  0  0  0  0  0  0  0  0  0  0  0
   17.0140   34.1650   16.2340 C   0  0  0  0  0  0  0  0  0  0  0  0
   16.1020   34.0980   17.2880 C   0  0  0  0  0  0  0  0  0  0  0  0
   14.7380   34.2420   17.0430 C   0  0  0  0  0  0  0  0  0  0  0  0
   14.2850   34.4520   15.7430 C   0  0  0  0  0  0  0  0  0  0  0  0
   15.1940   34.5200   14.6870 C   0  0  0  0  0  0  0  0  0  0  0  0
   17.1020   33.6450   12.5630 C   0  0  0  0  0  0  0  0  0  0  0  0
   16.3700   32.5480   12.5000 N   0  0  0  0  0  0  0  0  0  0  0  0
   16.2620   32.2180   11.1680 N   0  0  0  0  0  0  0  0  0  0  0  0
   16.9290   33.1400   10.5040 C   0  0  0  0  0  0  0  0  0  0  0  0
   17.1110   33.2850    9.0400 C   0  0  0  0  0  0  0  0  0  0  0  0
   16.7760   32.0380    8.2860 C   0  0  0  0  0  0  0  0  0  0  0  0
   17.6370   31.1610    7.8060 N   0  0  0  0  0  0  0  0  0  0  0  0
   16.8780   30.1800    7.2130 C   0  0  0  0  0  0  0  0  0  0  0  0
   17.2800   29.0150    6.5450 C   0  0  0  0  0  0  0  0  0  0  0  0
   16.2950   28.1680    6.0220 C   0  0  0  0  0  0  0  0  0  0  0  0
   14.9390   28.4740    6.1610 C   0  0  0  0  0  0  0  0  0  0  0  0
   14.5190   29.6330    6.8260 C   0  0  0  0  0  0  0  0  0  0  0  0
   15.5220   30.4580    7.3380 C   0  0  0  0  0  0  0  0  0  0  0  0
   15.4810   31.6410    8.0280 N   0  0  0  0  0  0  0  0  0  0  0  0
   17.4980   34.0790   11.3200 O   0  0  0  0  0  0  0  0  0  0  0  0
   19.5080   32.8820   14.1190 C   0  0  0  0  0  0  0  0  0  0  0  0
   20.8270   32.6040   14.4820 C   0  0  0  0  0  0  0  0  0  0  0  0
  1  2  2  0
  2  3  1  0
  3  4  2  0
  4  5  1  0
  5  6  1  0
  6  7  2  0
  7  8  1  0
  8  9  2  0
  9 10  1  0
 10 11  2  0
  5 12  1  0
 12 13  2  0
 13 14  1  0
 14 15  2  0
 15 16  1  0
 16 17  1  0
 17 18  2  0
 18 19  1  0
 19 20  2  0
 20 21  1  0
 21 22  2  0
 22 23  1  0
 23 24  2  0
 24 25  1  0
 15 26  1  0
  4 27  1  0
 27 28  2  0
 28  1  1  0
 11  6  1  0
 26 12  1  0
 25 17  1  0
 24 19  1  0
M  END
$$$$
