OSNPLDLPFDTALJ-UHFFFAOYSA-N_3POZ_m6
     RDKit          3D

 27 31  0  0  0  0  0  0  0  0999 V2000
   18.8440   31.4860    6.8960 C   0  0  0  0  0  0  0  0  0  0  0  0
   17.8450   30.3890    6.8090 C   0  0  0  0  0  0  0  0  0  0  0  0
   18.0220   29.1920    6.0540 C   0  0  0  0  0  0  0  0  0  0  0  0
   16.8840   28.4350    6.1990 C   0  0  0  0  0  0  0  0  0  0  0  0
   16.0200   29.1160    7.0070 N   0  0  0  0  0  0  0  0  0  0  0  0
   14.7970   28.6940    7.3520 N   0  0  0  0  0  0  0  0  0  0  0  0
   14.1670   29.5180    8.1250 C   0  0  0  0  0  0  0  0  0  0  0  0
   14.6250   30.7170    8.6000 N   0  0  0  0  0  0  0  0  0  0  0  0
   15.8120   31.1430    8.2780 C   0  0  0  0  0  0  0  0  0  0  0  0
   16.3250   32.3270    8.7660 N   0  0  0  0  0  0  0  0  0  0  0  0
   17.0430   32.5910    9.9510 C   0  0  0  0  0  0  0  0  0  0  0  0
   18.3380   32.1220   10.1970 C   0  0  0  0  0  0  0  0  0  0  0  0
   19.0350   32.4190   11.3780 C   0  0  0  0  0  0  0  0  0  0  0  0
   18.3910   33.2220   12.3250 C   0  0  0  0  0  0  0  0  0  0  0  0
   17.1070   33.7150   12.1210 C   0  0  0  0  0  0  0  0  0  0  0  0
   16.8240   34.4670   13.2810 C   0  0  0  0  0  0  0  0  0  0  0  0
   17.8300   34.4650   14.1580 N   0  0  0  0  0  0  0  0  0  0  0  0
   18.7680   33.6940   13.5610 N   0  0  0  0  0  0  0  0  0  0  0  0
   20.0410   33.4730   14.2350 C   0  0  0  0  0  0  0  0  0  0  0  0
   21.0430   34.5430   13.9060 C   0  0  0  0  0  0  0  0  0  0  0  0
   21.8760   34.4500   12.7860 C   0  0  0  0  0  0  0  0  0  0  0  0
   22.7820   35.4700   12.5120 C   0  0  0  0  0  0  0  0  0  0  0  0
   22.8220   36.5590   13.3660 C   0  0  0  0  0  0  0  0  0  0  0  0
   22.0310   36.6900   14.4510 N   0  0  0  0  0  0  0  0  0  0  0  0
   21.1630   35.6830   14.6990 C   0  0  0  0  0  0  0  0  0  0  0  0
   16.4290   33.4000   10.9270 C   0  0  0  0  0  0  0  0  0  0  0  0
   16.5890   30.2950    7.4030 C   0  0  0  0  0  0  0  0  0  0  0  0
  1  2  1  0
  2  3  1  0
  3  4  2  0
  4  5  1  0
  5  6  1  0
  6  7  2  0
  7  8  1  0
  8  9  2  0
  9 10  1  0
 10 11  1  0
 11 12  2  0
 12 13  1  0
 13 14  2  0
 14 15  1  0
 15 16  1  0
 16 17  2  0
 17 18  1  0
 18 19  1  0
 19 20  1  0
 20 21  2  0
 21 22  1  0
 22 23  2  0
 23 24  1  0
 24 25  2  0
 15 26  2  0
  9 27  1  0
 27  2  2  0
 27  5  1  0
 26 11  1  0
 18 14  1  0
 25 20  1  0
M  END
$$$$
