OSNPLDLPFDTALJ-UHFFFAOYSA-N_3RCD_m8
     RDKit          3D

 27 31  0  0  0  0  0  0  0  0999 V2000
    8.9760    2.5660   32.1350 C   0  0  0  0  0  0  0  0  0  0  0  0
    8.4240    1.1870   32.0890 C   0  0  0  0  0  0  0  0  0  0  0  0
    7.0810    0.8420   32.4230 C   0  0  0  0  0  0  0  0  0  0  0  0
    6.9530   -0.5190   32.2830 C   0  0  0  0  0  0  0  0  0  0  0  0
    8.1570   -1.0210   31.8800 N   0  0  0  0  0  0  0  0  0  0  0  0
    8.4150   -2.3170   31.6640 N   0  0  0  0  0  0  0  0  0  0  0  0
    9.6330   -2.5440   31.2910 C   0  0  0  0  0  0  0  0  0  0  0  0
   10.6230   -1.6190   31.1010 N   0  0  0  0  0  0  0  0  0  0  0  0
   10.3910   -0.3540   31.3040 C   0  0  0  0  0  0  0  0  0  0  0  0
   11.3500    0.6130   31.0880 N   0  0  0  0  0  0  0  0  0  0  0  0
   11.8320    1.1690   29.8840 C   0  0  0  0  0  0  0  0  0  0  0  0
   11.0110    1.7540   28.9140 C   0  0  0  0  0  0  0  0  0  0  0  0
   11.5220    2.3170   27.7350 C   0  0  0  0  0  0  0  0  0  0  0  0
   12.9080    2.2860   27.5500 C   0  0  0  0  0  0  0  0  0  0  0  0
   13.7630    1.7200   28.4900 C   0  0  0  0  0  0  0  0  0  0  0  0
   15.0540    1.8890   27.9470 C   0  0  0  0  0  0  0  0  0  0  0  0
   15.0420    2.5070   26.7640 N   0  0  0  0  0  0  0  0  0  0  0  0
   13.7260    2.7300   26.5380 N   0  0  0  0  0  0  0  0  0  0  0  0
   13.3210    3.4170   25.3190 C   0  0  0  0  0  0  0  0  0  0  0  0
   13.1740    4.8980   25.5300 C   0  0  0  0  0  0  0  0  0  0  0  0
   14.2390    5.7790   25.3150 C   0  0  0  0  0  0  0  0  0  0  0  0
   14.0550    7.1450   25.5110 C   0  0  0  0  0  0  0  0  0  0  0  0
   12.8060    7.5880   25.9110 C   0  0  0  0  0  0  0  0  0  0  0  0
   11.7530    6.7710   26.1210 N   0  0  0  0  0  0  0  0  0  0  0  0
   11.9580    5.4490   25.9290 C   0  0  0  0  0  0  0  0  0  0  0  0
   13.2240    1.1600   29.6640 C   0  0  0  0  0  0  0  0  0  0  0  0
    9.0580   -0.0020   31.7390 C   0  0  0  0  0  0  0  0  0  0  0  0
  1  2  1  0
  2  3  1  0
  3  4  2  0
  4  5  1  0
  5  6  1  0
  6  7  2  0
  7  8  1  0
  8  9  2  0
  9 10  1  0
 10 11  1  0
 11 12  2  0
 12 13  1  0
 13 14  2  0
 14 15  1  0
 15 16  1  0
 16 17  2  0
 17 18  1  0
 18 19  1  0
 19 20  1  0
 20 21  2  0
 21 22  1  0
 22 23  2  0
 23 24  1  0
 24 25  2  0
 15 26  2  0
  9 27  1  0
 27  2  2  0
 27  5  1  0
 26 11  1  0
 18 14  1  0
 25 20  1  0
M  END
$$$$
