OSSVQVKVEZPBSO-UHFFFAOYSA-M_9V8H_m5
     RDKit          3D

 28 30  0  0  0  0  0  0  0  0999 V2000
   -8.8600  -10.2330  -22.2170 O   0  0  0  0  0  0  0  0  0  0  0  0
   -9.2150   -9.0630  -22.2810 C   0  0  0  0  0  0  0  0  0  0  0  0
   -9.3230   -8.2820  -23.4080 N   0  0  0  0  0  0  0  0  0  0  0  0
   -9.0600   -8.5990  -24.7560 C   0  0  0  0  0  0  0  0  0  0  0  0
   -7.8360   -9.1380  -25.1730 C   0  0  0  0  0  0  0  0  0  0  0  0
   -7.6170   -9.4510  -26.5160 C   0  0  0  0  0  0  0  0  0  0  0  0
   -8.6270   -9.2320  -27.4480 C   0  0  0  0  0  0  0  0  0  0  0  0
   -8.4420   -9.5230  -28.7780 O   0  0  0  0  0  0  0  0  0  0  0  0
   -9.0010   -8.6320  -29.6690 C   0  0  0  0  0  0  0  0  0  0  0  0
   -8.2990   -7.5440  -30.1920 C   0  0  0  0  0  0  0  0  0  0  0  0
   -8.8370   -6.6930  -31.1060 N   0  0  0  0  0  0  0  0  0  0  0  0
  -10.1040   -6.9900  -31.4780 C   0  0  0  0  0  0  0  0  0  0  0  0
  -10.7900   -8.0820  -30.9680 C   0  0  0  0  0  0  0  0  0  0  0  0
  -12.3910   -8.4420  -31.4610 Cl  0  0  0  0  0  0  0  0  0  0  0  0
  -10.2620   -8.9310  -30.0640 N   0  0  0  0  0  0  0  0  0  0  0  0
   -9.8380   -8.6670  -27.0580 C   0  0  0  0  0  0  0  0  0  0  0  0
  -10.0840   -8.3540  -25.7060 C   0  0  0  0  0  0  0  0  0  0  0  0
  -11.4310   -7.7620  -25.3220 C   0  0  0  0  0  0  0  0  0  0  0  0
  -12.1180   -8.4010  -24.4560 O   0  0  0  0  0  0  0  0  0  0  0  0
  -11.7780   -6.6810  -25.8900 O   0  0  0  0  0  0  0  0  0  0  0  0
   -9.5390   -8.3390  -21.0210 C   0  0  0  0  0  0  0  0  0  0  0  0
  -10.7070   -8.6930  -20.3210 C   0  0  0  0  0  0  0  0  0  0  0  0
  -11.0620   -8.0180  -19.1510 C   0  0  0  0  0  0  0  0  0  0  0  0
  -10.2560   -6.9860  -18.6800 C   0  0  0  0  0  0  0  0  0  0  0  0
  -10.6940   -6.1470  -17.2420 Cl  0  0  0  0  0  0  0  0  0  0  0  0
   -9.0950   -6.6260  -19.3640 C   0  0  0  0  0  0  0  0  0  0  0  0
   -8.7330   -7.3010  -20.5350 C   0  0  0  0  0  0  0  0  0  0  0  0
   -7.2470   -6.8250  -21.2800 Cl  0  0  0  0  0  0  0  0  0  0  0  0
  1  2  2  0
  2  3  1  0
  3  4  1  0
  4  5  2  0
  5  6  1  0
  6  7  2  0
  7  8  1  0
  8  9  1  0
  9 10  2  0
 10 11  1  0
 11 12  2  0
 12 13  1  0
 13 14  1  0
 13 15  2  0
  7 16  1  0
 16 17  2  0
 17 18  1  0
 18 19  2  0
 18 20  1  0
  2 21  1  0
 21 22  2  0
 22 23  1  0
 23 24  2  0
 24 25  1  0
 24 26  1  0
 26 27  2  0
 27 28  1  0
 17  4  1  0
 27 21  1  0
 15  9  1  0
M  CHG  1  20  -1
M  END
$$$$
