OZYBACPIVBLIER-UHFFFAOYSA-N_4UDW_m8
     RDKit          3D

 36 39  0  0  0  0  0  0  0  0999 V2000
  129.4690  -12.6450  156.2300 N   0  0  0  0  0  0  0  0  0  0  0  0
  129.0010  -13.6780  157.0320 C   0  0  0  0  0  0  0  0  0  0  0  0
  129.2350  -13.6420  158.4120 C   0  0  0  0  0  0  0  0  0  0  0  0
  128.7430  -14.6470  159.2600 C   0  0  0  0  0  0  0  0  0  0  0  0
  129.0210  -14.5590  160.7120 C   0  0  0  0  0  0  0  0  0  0  0  0
  129.7070  -13.5980  161.2460 N   0  0  0  0  0  0  0  0  0  0  0  0
  129.7860  -13.8560  162.6350 O   0  0  0  0  0  0  0  0  0  0  0  0
  128.8000  -14.8490  162.9710 C   0  0  2  0  0  0  0  0  0  0  0  0
  127.5640  -14.1450  163.5580 C   0  0  0  0  0  0  0  0  0  0  0  0
  126.4550  -15.0550  163.8200 N   0  0  0  0  0  0  0  0  0  0  0  0
  125.3810  -14.7160  164.5960 C   0  0  0  0  0  0  0  0  0  0  0  0
  125.2340  -13.6550  165.1860 O   0  0  0  0  0  0  0  0  0  0  0  0
  129.3710  -15.7920  164.0420 C   0  0  0  0  0  0  0  0  0  0  0  0
  129.1790  -15.5840  165.2370 O   0  0  0  0  0  0  0  0  0  0  0  0
  130.1370  -16.8090  163.5190 N   0  0  0  0  0  0  0  0  0  0  0  0
  130.8990  -17.7620  164.1900 C   0  0  0  0  0  0  0  0  0  0  0  0
  131.7170  -17.4890  165.2750 C   0  0  0  0  0  0  0  0  0  0  0  0
  132.4460  -18.5340  165.8510 C   0  0  0  0  0  0  0  0  0  0  0  0
  132.3540  -19.8240  165.3300 C   0  0  0  0  0  0  0  0  0  0  0  0
  133.0860  -20.9530  165.9180 C   0  0  0  0  0  0  0  0  0  0  0  0
  132.3700  -21.8690  166.7160 C   0  0  0  0  0  0  0  0  0  0  0  0
  133.0040  -22.9550  167.3230 C   0  0  0  0  0  0  0  0  0  0  0  0
  134.3690  -23.1510  167.1470 C   0  0  0  0  0  0  0  0  0  0  0  0
  135.1030  -22.2630  166.3590 C   0  0  0  0  0  0  0  0  0  0  0  0
  134.4680  -21.1700  165.7470 C   0  0  0  0  0  0  0  0  0  0  0  0
  135.4190  -20.0740  164.7260 S   0  0  0  0  0  0  0  0  0  0  0  0
  136.9030  -20.8450  164.5220 N   0  0  0  0  0  0  0  0  0  0  0  0
  135.7160  -18.8820  165.4860 O   0  0  0  0  0  0  0  0  0  0  0  0
  134.8490  -20.0510  163.4000 O   0  0  0  0  0  0  0  0  0  0  0  0
  131.5070  -19.9900  164.2370 C   0  0  0  0  0  0  0  0  0  0  0  0
  130.7820  -18.9990  163.6650 N   0  0  0  0  0  0  0  0  0  0  0  0
  128.5320  -15.5880  161.6730 C   0  0  0  0  0  0  0  0  0  0  0  0
  128.0050  -15.7060  158.7230 C   0  0  0  0  0  0  0  0  0  0  0  0
  127.7530  -15.7510  157.3500 C   0  0  0  0  0  0  0  0  0  0  0  0
  128.2410  -14.7420  156.5140 C   0  0  0  0  0  0  0  0  0  0  0  0
  127.8950  -14.8410  154.8210 Cl  0  0  0  0  0  0  0  0  0  0  0  0
  1  2  1  0
  2  3  2  0
  3  4  1  0
  4  5  1  0
  5  6  2  0
  6  7  1  0
  7  8  1  0
  8  9  1  1
  9 10  1  0
 10 11  1  0
 11 12  2  0
  8 13  1  0
 13 14  2  0
 13 15  1  0
 15 16  1  0
 16 17  2  0
 17 18  1  0
 18 19  2  0
 19 20  1  0
 20 21  2  0
 21 22  1  0
 22 23  2  0
 23 24  1  0
 24 25  2  0
 25 26  1  0
 26 27  1  0
 26 28  2  0
 26 29  2  0
 19 30  1  0
 30 31  2  0
  8 32  1  0
  4 33  2  0
 33 34  1  0
 34 35  2  0
 35 36  1  0
 35  2  1  0
 32  5  1  0
 31 16  1  0
 25 20  1  0
M  END
$$$$
