OZYBACPIVBLIER-UHFFFAOYSA-N_2JKH_m5
     RDKit          3D

 36 39  0  0  0  0  0  0  0  0999 V2000
   -3.3830    8.7140   28.7420 N   0  0  0  0  0  0  0  0  0  0  0  0
   -2.4880    8.8490   27.6870 C   0  0  0  0  0  0  0  0  0  0  0  0
   -2.6640    9.8840   26.7600 C   0  0  0  0  0  0  0  0  0  0  0  0
   -1.7580   10.0770   25.7060 C   0  0  0  0  0  0  0  0  0  0  0  0
   -1.9920   11.1870   24.7540 C   0  0  0  0  0  0  0  0  0  0  0  0
   -1.0480   11.9650   24.3250 N   0  0  0  0  0  0  0  0  0  0  0  0
   -1.6420   12.9120   23.4580 O   0  0  0  0  0  0  0  0  0  0  0  0
   -2.9560   12.4450   23.1030 C   0  0  2  0  0  0  0  0  0  0  0  0
   -2.8900   11.7820   21.7150 C   0  0  0  0  0  0  0  0  0  0  0  0
   -1.7610   12.2390   20.9140 N   0  0  0  0  0  0  0  0  0  0  0  0
   -0.6210   11.5020   20.7440 C   0  0  0  0  0  0  0  0  0  0  0  0
   -0.3900   10.4170   21.2580 O   0  0  0  0  0  0  0  0  0  0  0  0
   -3.9170   13.6410   23.0200 C   0  0  0  0  0  0  0  0  0  0  0  0
   -3.6740   14.6020   22.2940 O   0  0  0  0  0  0  0  0  0  0  0  0
   -4.9970   13.5300   23.8660 N   0  0  0  0  0  0  0  0  0  0  0  0
   -5.9910   14.4660   24.1420 C   0  0  0  0  0  0  0  0  0  0  0  0
   -6.6600   15.2050   23.1790 C   0  0  0  0  0  0  0  0  0  0  0  0
   -7.6280   16.1270   23.5880 C   0  0  0  0  0  0  0  0  0  0  0  0
   -7.9020   16.3030   24.9440 C   0  0  0  0  0  0  0  0  0  0  0  0
   -8.9250   17.2450   25.4140 C   0  0  0  0  0  0  0  0  0  0  0  0
  -10.2720   16.8270   25.4040 C   0  0  0  0  0  0  0  0  0  0  0  0
  -11.3000   17.6770   25.8180 C   0  0  0  0  0  0  0  0  0  0  0  0
  -11.0060   18.9630   26.2530 C   0  0  0  0  0  0  0  0  0  0  0  0
   -9.6820   19.4040   26.2780 C   0  0  0  0  0  0  0  0  0  0  0  0
   -8.6460   18.5520   25.8620 C   0  0  0  0  0  0  0  0  0  0  0  0
   -6.9680   19.1260   25.9330 S   0  0  0  0  0  0  0  0  0  0  0  0
   -7.0780   20.7340   26.4240 N   0  0  0  0  0  0  0  0  0  0  0  0
   -6.4440   19.1780   24.5880 O   0  0  0  0  0  0  0  0  0  0  0  0
   -6.2910   18.4700   27.0260 O   0  0  0  0  0  0  0  0  0  0  0  0
   -7.1710   15.5140   25.8290 C   0  0  0  0  0  0  0  0  0  0  0  0
   -6.2350   14.6060   25.4610 N   0  0  0  0  0  0  0  0  0  0  0  0
   -3.3490   11.4970   24.2210 C   0  0  0  0  0  0  0  0  0  0  0  0
   -0.6590    9.2230   25.5720 C   0  0  0  0  0  0  0  0  0  0  0  0
   -0.4630    8.1920   26.4940 C   0  0  0  0  0  0  0  0  0  0  0  0
   -1.3660    8.0130   27.5460 C   0  0  0  0  0  0  0  0  0  0  0  0
   -1.0760    6.7260   28.6650 Cl  0  0  0  0  0  0  0  0  0  0  0  0
  1  2  1  0
  2  3  2  0
  3  4  1  0
  4  5  1  0
  5  6  2  0
  6  7  1  0
  7  8  1  0
  8  9  1  6
  9 10  1  0
 10 11  1  0
 11 12  2  0
  8 13  1  0
 13 14  2  0
 13 15  1  0
 15 16  1  0
 16 17  2  0
 17 18  1  0
 18 19  2  0
 19 20  1  0
 20 21  2  0
 21 22  1  0
 22 23  2  0
 23 24  1  0
 24 25  2  0
 25 26  1  0
 26 27  1  0
 26 28  2  0
 26 29  2  0
 19 30  1  0
 30 31  2  0
  8 32  1  0
  4 33  2  0
 33 34  1  0
 34 35  2  0
 35 36  1  0
 35  2  1  0
 32  5  1  0
 31 16  1  0
 25 20  1  0
M  END
$$$$
