PAWOPJKHTZCKMT-UHFFFAOYSA-N_5U3Q_m4
     RDKit          3D

 31 34  0  0  0  0  0  0  0  0999 V2000
   36.5220  -35.8490  103.7490 C   0  0  0  0  0  0  0  0  0  0  0  0
   35.8210  -36.5200  102.5850 C   0  0  0  0  0  0  0  0  0  0  0  0
   36.3500  -35.9850  101.3740 O   0  0  0  0  0  0  0  0  0  0  0  0
   37.7820  -35.9030  101.3880 C   0  0  1  0  0  0  0  0  0  0  0  0
   38.3470  -37.1520  100.6950 C   0  0  0  0  0  0  0  0  0  0  0  0
   39.2960  -37.9180  101.5950 C   0  0  0  0  0  0  0  0  0  0  0  0
   38.8460  -38.4470  102.8090 C   0  0  0  0  0  0  0  0  0  0  0  0
   39.7060  -39.1350  103.6700 C   0  0  0  0  0  0  0  0  0  0  0  0
   41.0470  -39.2830  103.2840 C   0  0  0  0  0  0  0  0  0  0  0  0
   41.5290  -38.7680  102.0780 C   0  0  0  0  0  0  0  0  0  0  0  0
   42.9110  -39.0900  102.0030 C   0  0  0  0  0  0  0  0  0  0  0  0
   43.2450  -39.7800  103.1450 C   0  0  0  0  0  0  0  0  0  0  0  0
   42.1100  -39.9060  103.9100 N   0  0  0  0  0  0  0  0  0  0  0  0
   42.0640  -40.5570  105.2150 C   0  0  0  0  0  0  0  0  0  0  0  0
   41.6310  -39.6220  106.2850 C   0  0  0  0  0  0  0  0  0  0  0  0
   40.3920  -39.7570  106.8850 N   0  0  0  0  0  0  0  0  0  0  0  0
   40.3390  -38.7650  107.7550 C   0  0  0  0  0  0  0  0  0  0  0  0
   39.2930  -38.4570  108.7230 C   0  0  0  0  0  0  0  0  0  0  0  0
   39.6540  -38.4380  110.0860 C   0  0  0  0  0  0  0  0  0  0  0  0
   38.7200  -38.1400  111.0800 C   0  0  0  0  0  0  0  0  0  0  0  0
   37.4040  -37.8620  110.7320 C   0  0  0  0  0  0  0  0  0  0  0  0
   37.0200  -37.8910  109.3920 C   0  0  0  0  0  0  0  0  0  0  0  0
   37.9560  -38.1910  108.3900 C   0  0  0  0  0  0  0  0  0  0  0  0
   37.3490  -38.2660  106.7690 Cl  0  0  0  0  0  0  0  0  0  0  0  0
   41.4690  -37.9960  107.7880 O   0  0  0  0  0  0  0  0  0  0  0  0
   42.2840  -38.5380  106.8350 C   0  0  0  0  0  0  0  0  0  0  0  0
   43.5960  -37.8980  106.6370 C   0  0  0  0  0  0  0  0  0  0  0  0
   40.6440  -38.0770  101.2270 C   0  0  0  0  0  0  0  0  0  0  0  0
   38.2520  -34.6480  100.6480 C   0  0  0  0  0  0  0  0  0  0  0  0
   37.9380  -34.2890   99.5240 O   0  0  0  0  0  0  0  0  0  0  0  0
   39.1510  -33.9210  101.3510 O   0  0  0  0  0  0  0  0  0  0  0  0
  1  2  1  0
  2  3  1  0
  3  4  1  0
  4  5  1  6
  5  6  1  0
  6  7  2  0
  7  8  1  0
  8  9  2  0
  9 10  1  0
 10 11  1  0
 11 12  2  0
 12 13  1  0
 13 14  1  0
 14 15  1  0
 15 16  1  0
 16 17  2  0
 17 18  1  0
 18 19  2  0
 19 20  1  0
 20 21  2  0
 21 22  1  0
 22 23  2  0
 23 24  1  0
 17 25  1  0
 25 26  1  0
 26 27  1  0
 10 28  2  0
  4 29  1  0
 29 30  2  0
 29 31  1  0
 28  6  1  0
 13  9  1  0
 26 15  2  0
 23 18  1  0
M  END
$$$$
