PBCGIIRIOLOMJH-UHFFFAOYSA-N_4EY7_m6
     RDKit          3D

 27 30  0  0  0  0  0  0  0  0999 V2000
  -12.2050  -46.2390   30.9300 O   0  0  0  0  0  0  0  0  0  0  0  0
  -12.6970  -45.1140   30.8580 C   0  0  0  0  0  0  0  0  0  0  0  0
  -13.2200  -44.3820   32.0760 C   0  0  0  0  0  0  0  0  0  0  0  0
  -12.6950  -42.9470   32.1340 C   0  0  0  0  0  0  0  0  0  0  0  0
  -11.3730  -42.8130   32.8280 C   0  0  0  0  0  0  0  0  0  0  0  0
  -11.1720  -42.2710   34.0830 C   0  0  0  0  0  0  0  0  0  0  0  0
   -9.8340  -42.3320   34.3720 N   0  0  0  0  0  0  0  0  0  0  0  0
   -9.1440  -42.9000   33.3250 C   0  0  0  0  0  0  0  0  0  0  0  0
   -7.7720  -43.1450   33.1730 C   0  0  0  0  0  0  0  0  0  0  0  0
   -7.3430  -43.7300   31.9770 C   0  0  0  0  0  0  0  0  0  0  0  0
   -8.2510  -44.0630   30.9790 C   0  0  0  0  0  0  0  0  0  0  0  0
   -9.6270  -43.8100   31.1450 C   0  0  0  0  0  0  0  0  0  0  0  0
  -10.0850  -43.2120   32.3390 C   0  0  0  0  0  0  0  0  0  0  0  0
  -12.8080  -44.3960   29.6870 N   0  0  0  0  0  0  0  0  0  0  0  0
  -12.2920  -44.8840   28.4140 C   0  0  0  0  0  0  0  0  0  0  0  0
  -13.3790  -45.5520   27.5690 C   0  0  0  0  0  0  0  0  0  0  0  0
  -14.3360  -44.5290   26.9550 C   0  0  0  0  0  0  0  0  0  0  0  0
  -13.6070  -43.5260   26.1610 N   0  0  0  0  0  0  0  0  0  0  0  0
  -14.5650  -42.6090   25.5100 C   0  0  0  0  0  0  0  0  0  0  0  0
  -15.9120  -42.5480   26.2050 C   0  0  0  0  0  0  0  0  0  0  0  0
  -15.9930  -42.4440   27.6020 C   0  0  0  0  0  0  0  0  0  0  0  0
  -17.2350  -42.3930   28.2380 C   0  0  0  0  0  0  0  0  0  0  0  0
  -18.4060  -42.4500   27.4850 C   0  0  0  0  0  0  0  0  0  0  0  0
  -18.3390  -42.5600   26.0970 C   0  0  0  0  0  0  0  0  0  0  0  0
  -17.1000  -42.6110   25.4610 C   0  0  0  0  0  0  0  0  0  0  0  0
  -12.6470  -42.7970   27.0040 C   0  0  0  0  0  0  0  0  0  0  0  0
  -11.6240  -43.7550   27.6250 C   0  0  0  0  0  0  0  0  0  0  0  0
  1  2  2  0
  2  3  1  0
  3  4  1  0
  4  5  1  0
  5  6  2  0
  6  7  1  0
  7  8  1  0
  8  9  2  0
  9 10  1  0
 10 11  2  0
 11 12  1  0
 12 13  2  0
  2 14  1  0
 14 15  1  0
 15 16  1  0
 16 17  1  0
 17 18  1  0
 18 19  1  0
 19 20  1  0
 20 21  2  0
 21 22  1  0
 22 23  2  0
 23 24  1  0
 24 25  2  0
 18 26  1  0
 26 27  1  0
 13  5  1  0
 27 15  1  0
 13  8  1  0
 25 20  1  0
M  END
$$$$
