PBCGIIRIOLOMJH-UHFFFAOYSA-N_4BDS_m3
     RDKit          3D

 27 30  0  0  0  0  0  0  0  0999 V2000
  133.9800  111.9840   42.2880 O   0  0  0  0  0  0  0  0  0  0  0  0
  133.9200  112.1790   41.0760 C   0  0  0  0  0  0  0  0  0  0  0  0
  132.7450  112.8810   40.4280 C   0  0  0  0  0  0  0  0  0  0  0  0
  133.1790  114.1730   39.7340 C   0  0  0  0  0  0  0  0  0  0  0  0
  133.0980  115.3880   40.6070 C   0  0  0  0  0  0  0  0  0  0  0  0
  132.6460  115.4160   41.9130 C   0  0  0  0  0  0  0  0  0  0  0  0
  132.7320  116.7030   42.3740 N   0  0  0  0  0  0  0  0  0  0  0  0
  133.2270  117.5310   41.3910 C   0  0  0  0  0  0  0  0  0  0  0  0
  133.4650  118.9130   41.4090 C   0  0  0  0  0  0  0  0  0  0  0  0
  133.9650  119.5020   40.2430 C   0  0  0  0  0  0  0  0  0  0  0  0
  134.2250  118.7380   39.1120 C   0  0  0  0  0  0  0  0  0  0  0  0
  133.9800  117.3510   39.1080 C   0  0  0  0  0  0  0  0  0  0  0  0
  133.4660  116.7330   40.2680 C   0  0  0  0  0  0  0  0  0  0  0  0
  134.9050  111.8090   40.1860 N   0  0  0  0  0  0  0  0  0  0  0  0
  136.1560  111.1930   40.6120 C   0  0  0  0  0  0  0  0  0  0  0  0
  137.1420  111.0270   39.4530 C   0  0  0  0  0  0  0  0  0  0  0  0
  137.7690  112.3590   39.0400 C   0  0  0  0  0  0  0  0  0  0  0  0
  138.4220  113.0190   40.1830 N   0  0  0  0  0  0  0  0  0  0  0  0
  139.0930  114.2550   39.7320 C   0  0  0  0  0  0  0  0  0  0  0  0
  139.8620  114.9620   40.8320 C   0  0  0  0  0  0  0  0  0  0  0  0
  139.4710  116.2350   41.2740 C   0  0  0  0  0  0  0  0  0  0  0  0
  140.1840  116.8850   42.2830 C   0  0  0  0  0  0  0  0  0  0  0  0
  141.2960  116.2700   42.8570 C   0  0  0  0  0  0  0  0  0  0  0  0
  141.6980  115.0080   42.4230 C   0  0  0  0  0  0  0  0  0  0  0  0
  140.9860  114.3590   41.4150 C   0  0  0  0  0  0  0  0  0  0  0  0
  137.4460  113.2910   41.2500 C   0  0  0  0  0  0  0  0  0  0  0  0
  136.8010  111.9930   41.7470 C   0  0  0  0  0  0  0  0  0  0  0  0
  1  2  2  0
  2  3  1  0
  3  4  1  0
  4  5  1  0
  5  6  2  0
  6  7  1  0
  7  8  1  0
  8  9  2  0
  9 10  1  0
 10 11  2  0
 11 12  1  0
 12 13  2  0
  2 14  1  0
 14 15  1  0
 15 16  1  0
 16 17  1  0
 17 18  1  0
 18 19  1  0
 19 20  1  0
 20 21  2  0
 21 22  1  0
 22 23  2  0
 23 24  1  0
 24 25  2  0
 18 26  1  0
 26 27  1  0
 13  5  1  0
 27 15  1  0
 13  8  1  0
 25 20  1  0
M  END
$$$$
