PBCGIIRIOLOMJH-UHFFFAOYSA-N_4BDS_m2
     RDKit          3D

 27 30  0  0  0  0  0  0  0  0999 V2000
  137.5720  111.7370   41.6370 O   0  0  0  0  0  0  0  0  0  0  0  0
  136.9610  112.3820   40.7880 C   0  0  0  0  0  0  0  0  0  0  0  0
  137.5540  112.6960   39.4310 C   0  0  0  0  0  0  0  0  0  0  0  0
  138.2400  114.0620   39.4230 C   0  0  0  0  0  0  0  0  0  0  0  0
  139.5910  114.0660   40.0740 C   0  0  0  0  0  0  0  0  0  0  0  0
  140.6000  113.1500   39.8460 C   0  0  0  0  0  0  0  0  0  0  0  0
  141.6790  113.4930   40.6180 N   0  0  0  0  0  0  0  0  0  0  0  0
  141.3980  114.6180   41.3600 C   0  0  0  0  0  0  0  0  0  0  0  0
  142.1880  115.3080   42.2900 C   0  0  0  0  0  0  0  0  0  0  0  0
  141.6310  116.4290   42.9140 C   0  0  0  0  0  0  0  0  0  0  0  0
  140.3400  116.8460   42.6120 C   0  0  0  0  0  0  0  0  0  0  0  0
  139.5570  116.1420   41.6770 C   0  0  0  0  0  0  0  0  0  0  0  0
  140.0920  115.0020   41.0400 C   0  0  0  0  0  0  0  0  0  0  0  0
  135.6820  112.8650   40.9600 N   0  0  0  0  0  0  0  0  0  0  0  0
  134.9000  112.6040   42.1630 C   0  0  0  0  0  0  0  0  0  0  0  0
  135.1050  113.6820   43.2300 C   0  0  0  0  0  0  0  0  0  0  0  0
  134.3900  114.9860   42.8710 C   0  0  0  0  0  0  0  0  0  0  0  0
  132.9540  114.7590   42.6350 N   0  0  0  0  0  0  0  0  0  0  0  0
  132.2780  116.0480   42.3790 C   0  0  0  0  0  0  0  0  0  0  0  0
  133.0170  116.9340   41.3960 C   0  0  0  0  0  0  0  0  0  0  0  0
  133.3210  118.2650   41.7200 C   0  0  0  0  0  0  0  0  0  0  0  0
  133.9970  119.0800   40.8100 C   0  0  0  0  0  0  0  0  0  0  0  0
  134.3730  118.5730   39.5670 C   0  0  0  0  0  0  0  0  0  0  0  0
  134.0710  117.2540   39.2300 C   0  0  0  0  0  0  0  0  0  0  0  0
  133.3960  116.4400   40.1380 C   0  0  0  0  0  0  0  0  0  0  0  0
  132.7550  113.8140   41.5240 C   0  0  0  0  0  0  0  0  0  0  0  0
  133.4130  112.4630   41.8280 C   0  0  0  0  0  0  0  0  0  0  0  0
  1  2  2  0
  2  3  1  0
  3  4  1  0
  4  5  1  0
  5  6  2  0
  6  7  1  0
  7  8  1  0
  8  9  2  0
  9 10  1  0
 10 11  2  0
 11 12  1  0
 12 13  2  0
  2 14  1  0
 14 15  1  0
 15 16  1  0
 16 17  1  0
 17 18  1  0
 18 19  1  0
 19 20  1  0
 20 21  2  0
 21 22  1  0
 22 23  2  0
 23 24  1  0
 24 25  2  0
 18 26  1  0
 26 27  1  0
 13  5  1  0
 27 15  1  0
 13  8  1  0
 25 20  1  0
M  END
$$$$
