PBCGIIRIOLOMJH-UHFFFAOYSA-N_4EY7_m1
     RDKit          3D

 27 30  0  0  0  0  0  0  0  0999 V2000
   -7.5860  -44.3410   30.2680 O   0  0  0  0  0  0  0  0  0  0  0  0
   -8.5980  -44.6960   30.8710 C   0  0  0  0  0  0  0  0  0  0  0  0
   -8.7320  -44.5600   32.3730 C   0  0  0  0  0  0  0  0  0  0  0  0
   -8.7240  -43.0940   32.8050 C   0  0  0  0  0  0  0  0  0  0  0  0
  -10.0250  -42.6240   33.3820 C   0  0  0  0  0  0  0  0  0  0  0  0
  -10.1690  -41.7360   34.4310 C   0  0  0  0  0  0  0  0  0  0  0  0
  -11.5070  -41.5500   34.6610 N   0  0  0  0  0  0  0  0  0  0  0  0
  -12.2520  -42.3070   33.7850 C   0  0  0  0  0  0  0  0  0  0  0  0
  -13.6430  -42.4440   33.6650 C   0  0  0  0  0  0  0  0  0  0  0  0
  -14.1300  -43.3080   32.6790 C   0  0  0  0  0  0  0  0  0  0  0  0
  -13.2610  -43.9990   31.8430 C   0  0  0  0  0  0  0  0  0  0  0  0
  -11.8660  -43.8520   31.9750 C   0  0  0  0  0  0  0  0  0  0  0  0
  -11.3490  -42.9940   32.9690 C   0  0  0  0  0  0  0  0  0  0  0  0
   -9.7120  -45.2260   30.2580 N   0  0  0  0  0  0  0  0  0  0  0  0
   -9.8210  -45.3660   28.8110 C   0  0  0  0  0  0  0  0  0  0  0  0
  -10.7690  -46.4990   28.4100 C   0  0  0  0  0  0  0  0  0  0  0  0
  -12.2350  -46.1250   28.6310 C   0  0  0  0  0  0  0  0  0  0  0  0
  -12.5820  -44.8840   27.9170 N   0  0  0  0  0  0  0  0  0  0  0  0
  -14.0230  -44.5990   28.0770 C   0  0  0  0  0  0  0  0  0  0  0  0
  -14.6740  -44.0490   26.8230 C   0  0  0  0  0  0  0  0  0  0  0  0
  -14.2460  -44.4650   25.5530 C   0  0  0  0  0  0  0  0  0  0  0  0
  -14.8450  -43.9530   24.4010 C   0  0  0  0  0  0  0  0  0  0  0  0
  -15.8740  -43.0190   24.5070 C   0  0  0  0  0  0  0  0  0  0  0  0
  -16.3040  -42.5930   25.7630 C   0  0  0  0  0  0  0  0  0  0  0  0
  -15.7060  -43.1040   26.9140 C   0  0  0  0  0  0  0  0  0  0  0  0
  -11.7530  -43.7640   28.3920 C   0  0  0  0  0  0  0  0  0  0  0  0
  -10.2640  -44.0500   28.1670 C   0  0  0  0  0  0  0  0  0  0  0  0
  1  2  2  0
  2  3  1  0
  3  4  1  0
  4  5  1  0
  5  6  2  0
  6  7  1  0
  7  8  1  0
  8  9  2  0
  9 10  1  0
 10 11  2  0
 11 12  1  0
 12 13  2  0
  2 14  1  0
 14 15  1  0
 15 16  1  0
 16 17  1  0
 17 18  1  0
 18 19  1  0
 19 20  1  0
 20 21  2  0
 21 22  1  0
 22 23  2  0
 23 24  1  0
 24 25  2  0
 18 26  1  0
 26 27  1  0
 13  5  1  0
 27 15  1  0
 13  8  1  0
 25 20  1  0
M  END
$$$$
