PBDWKKSYCSLCRJ-UHFFFAOYSA-N_3POZ_m8
     RDKit          3D

 37 40  0  0  0  0  0  0  0  0999 V2000
   14.8230   29.2080    6.2910 C   0  0  0  0  0  0  0  0  0  0  0  0
   14.7790   30.0460    7.5670 C   0  0  0  0  0  0  0  0  0  0  0  0
   16.0440   30.7340    7.8710 N   0  0  0  0  0  0  0  0  0  0  0  0
   16.8120   31.1290    6.6750 C   0  0  0  0  0  0  0  0  0  0  0  0
   18.1960   30.5010    6.5230 C   0  0  0  0  0  0  0  0  0  0  0  0
   15.8270   31.8980    8.7670 C   0  0  0  0  0  0  0  0  0  0  0  0
   17.1110   32.3750    9.4700 C   0  0  0  0  0  0  0  0  0  0  0  0
   16.8880   32.6180   10.8810 N   0  0  0  0  0  0  0  0  0  0  0  0
   16.7410   33.8800   11.3950 C   0  0  0  0  0  0  0  0  0  0  0  0
   16.7920   34.8900   10.7000 O   0  0  0  0  0  0  0  0  0  0  0  0
   16.6090   33.9480   12.8360 C   0  0  0  0  0  0  0  0  0  0  0  0
   15.4070   34.3120   13.3930 N   0  0  0  0  0  0  0  0  0  0  0  0
   15.4940   34.3980   14.7580 C   0  0  0  0  0  0  0  0  0  0  0  0
   14.5310   34.7730   15.6750 C   0  0  0  0  0  0  0  0  0  0  0  0
   14.8710   34.7670   16.9700 N   0  0  0  0  0  0  0  0  0  0  0  0
   16.1450   34.3990   17.3700 N   0  0  0  0  0  0  0  0  0  0  0  0
   17.1320   34.0200   16.5110 C   0  0  0  0  0  0  0  0  0  0  0  0
   18.4170   33.6840   16.9670 N   0  0  0  0  0  0  0  0  0  0  0  0
   19.6790   34.2820   16.7950 C   0  0  0  0  0  0  0  0  0  0  0  0
   19.8820   35.6600   16.6510 C   0  0  0  0  0  0  0  0  0  0  0  0
   21.1660   36.1940   16.4900 C   0  0  0  0  0  0  0  0  0  0  0  0
   22.2730   35.3520   16.4980 C   0  0  0  0  0  0  0  0  0  0  0  0
   23.5170   35.9020   16.3350 O   0  0  0  0  0  0  0  0  0  0  0  0
   23.4900   36.9630   15.3700 C   0  0  0  0  0  0  0  0  0  0  0  0
   23.7210   36.4090   13.9850 C   0  0  0  0  0  0  0  0  0  0  0  0
   24.4130   35.1990   13.8090 C   0  0  0  0  0  0  0  0  0  0  0  0
   24.6390   34.6860   12.5300 C   0  0  0  0  0  0  0  0  0  0  0  0
   24.1820   35.3810   11.4120 C   0  0  0  0  0  0  0  0  0  0  0  0
   23.4970   36.5780   11.5840 C   0  0  0  0  0  0  0  0  0  0  0  0
   23.0640   37.2490   10.5090 F   0  0  0  0  0  0  0  0  0  0  0  0
   23.2620   37.0950   12.8540 C   0  0  0  0  0  0  0  0  0  0  0  0
   22.0960   33.9750   16.6220 C   0  0  0  0  0  0  0  0  0  0  0  0
   23.4400   32.8910   16.6130 Cl  0  0  0  0  0  0  0  0  0  0  0  0
   20.8110   33.4490   16.7770 C   0  0  0  0  0  0  0  0  0  0  0  0
   16.7840   34.0130   15.1260 C   0  0  0  0  0  0  0  0  0  0  0  0
   17.4720   33.6630   13.8940 C   0  0  0  0  0  0  0  0  0  0  0  0
   18.8390   33.0710   13.7890 C   0  0  0  0  0  0  0  0  0  0  0  0
  1  2  1  0
  2  3  1  0
  3  4  1  0
  4  5  1  0
  3  6  1  0
  6  7  1  0
  7  8  1  0
  8  9  1  0
  9 10  2  0
  9 11  1  0
 11 12  1  0
 12 13  1  0
 13 14  2  0
 14 15  1  0
 15 16  2  0
 16 17  1  0
 17 18  1  0
 18 19  1  0
 19 20  2  0
 20 21  1  0
 21 22  2  0
 22 23  1  0
 23 24  1  0
 24 25  1  0
 25 26  2  0
 26 27  1  0
 27 28  2  0
 28 29  1  0
 29 30  1  0
 29 31  2  0
 22 32  1  0
 32 33  1  0
 32 34  2  0
 17 35  2  0
 35 36  1  0
 36 37  1  0
 36 11  2  0
 35 13  1  0
 34 19  1  0
 31 25  1  0
M  END
$$$$
