PEALVEWPZOQWRK-GOSISDBHSA-N_8BXH_m6
     RDKit          3D

 30 34  0  0  0  0  0  0  0  0999 V2000
  -18.4240   17.3040   22.4410 C   0  0  0  0  0  0  0  0  0  0  0  0
  -17.1670   17.7000   21.6810 C   0  0  0  0  0  0  0  0  0  0  0  0
  -16.7890   16.7110   20.5600 C   0  0  0  0  0  0  0  0  0  0  0  0
  -17.0130   17.2940   19.1500 C   0  0  0  0  0  0  0  0  0  0  0  0
  -16.4870   18.7160   18.9980 C   0  0  0  0  0  0  0  0  0  0  0  0
  -15.4090   16.2540   20.7500 N   0  0  0  0  0  0  0  0  0  0  0  0
  -14.7850   15.2430   20.0700 C   0  0  0  0  0  0  0  0  0  0  0  0
  -13.5000   15.1590   20.5690 C   0  0  0  0  0  0  0  0  0  0  0  0
  -12.4110   14.2830   20.1860 C   0  0  0  0  0  0  0  0  0  0  0  0
  -11.2070   14.7800   20.2280 N   0  0  0  0  0  0  0  0  0  0  0  0
  -10.1400   13.9860   19.8410 C   0  0  0  0  0  0  0  0  0  0  0  0
   -8.8660   14.6400   19.9130 C   0  0  0  0  0  0  0  0  0  0  0  0
   -8.5660   15.9090   20.4590 C   0  0  0  0  0  0  0  0  0  0  0  0
   -7.2690   16.2190   20.3620 N   0  0  0  0  0  0  0  0  0  0  0  0
   -6.7340   15.1450   19.7540 N   0  0  0  0  0  0  0  0  0  0  0  0
   -5.3100   15.1050   19.4780 C   0  0  0  0  0  0  0  0  0  0  0  0
   -4.8470   16.2950   18.6350 C   0  0  1  0  0  0  0  0  0  0  0  0
   -3.8470   15.9330   17.5420 C   0  0  0  0  0  0  0  0  0  0  0  0
   -3.9900   17.0500   16.5170 C   0  0  0  0  0  0  0  0  0  0  0  0
   -5.2720   17.7780   16.8900 C   0  0  0  0  0  0  0  0  0  0  0  0
   -5.9510   16.9190   17.8690 N   0  0  0  0  0  0  0  0  0  0  0  0
   -7.6490   14.1700   19.4680 C   0  0  0  0  0  0  0  0  0  0  0  0
  -10.3070   12.7190   19.4240 C   0  0  0  0  0  0  0  0  0  0  0  0
  -11.5750   12.1730   19.3940 N   0  0  0  0  0  0  0  0  0  0  0  0
  -11.9360   10.9200   19.0260 N   0  0  0  0  0  0  0  0  0  0  0  0
  -13.2500   10.8740   19.2410 C   0  0  0  0  0  0  0  0  0  0  0  0
  -13.7590   12.0900   19.7250 C   0  0  0  0  0  0  0  0  0  0  0  0
  -12.6650   12.9240   19.7860 C   0  0  0  0  0  0  0  0  0  0  0  0
  -13.4560   16.1950   21.5350 C   0  0  0  0  0  0  0  0  0  0  0  0
  -14.6180   16.8410   21.6640 N   0  0  0  0  0  0  0  0  0  0  0  0
  1  2  1  0
  2  3  1  0
  3  4  1  0
  4  5  1  0
  3  6  1  0
  6  7  1  0
  7  8  2  0
  8  9  1  0
  9 10  2  0
 10 11  1  0
 11 12  1  0
 12 13  1  0
 13 14  2  0
 14 15  1  0
 15 16  1  0
 17 16  1  6
 17 18  1  0
 18 19  1  0
 19 20  1  0
 20 21  1  0
 15 22  1  0
 11 23  2  0
 23 24  1  0
 24 25  1  0
 25 26  2  0
 26 27  1  0
 27 28  2  0
  8 29  1  0
 29 30  2  0
 30  6  1  0
 28  9  1  0
 22 12  2  0
 28 24  1  0
 21 17  1  0
M  END
$$$$
