PGFUYRPYQOJNGW-UHFFFAOYSA-N_6N7A_m9
     RDKit          3D

 32 36  0  0  0  0  0  0  0  0999 V2000
   -1.5110  -16.3880   20.0760 C   0  0  0  0  0  0  0  0  0  0  0  0
   -0.1890  -16.5750   19.5280 N   0  0  0  0  0  0  0  0  0  0  0  0
    0.9370  -16.9310   20.2070 C   0  0  0  0  0  0  0  0  0  0  0  0
    1.9520  -16.9900   19.2730 C   0  0  0  0  0  0  0  0  0  0  0  0
    3.3250  -17.3320   19.5870 C   0  0  0  0  0  0  0  0  0  0  0  0
    3.6350  -18.5600   20.1670 C   0  0  0  0  0  0  0  0  0  0  0  0
    4.9650  -18.8860   20.4800 C   0  0  0  0  0  0  0  0  0  0  0  0
    5.2060  -20.1750   21.1170 C   0  0  0  0  0  0  0  0  0  0  0  0
    5.2050  -20.5110   22.4860 C   0  0  0  0  0  0  0  0  0  0  0  0
    5.4710  -21.8090   22.6480 N   0  0  0  0  0  0  0  0  0  0  0  0
    5.5650  -22.2270   21.3690 N   0  0  0  0  0  0  0  0  0  0  0  0
    5.8490  -23.6640   21.0570 C   0  0  1  0  0  0  0  0  0  0  0  0
    7.2660  -23.8350   20.5190 C   0  0  0  0  0  0  0  0  0  0  0  0
    8.1690  -24.3950   21.5350 C   0  0  0  0  0  0  0  0  0  0  0  0
    8.8670  -24.8480   22.3420 N   0  0  0  0  0  0  0  0  0  0  0  0
    5.4040  -24.6650   22.1700 C   0  0  0  0  0  0  0  0  0  0  0  0
    4.0120  -24.7470   21.4900 C   0  0  2  0  0  0  0  0  0  0  0  0
    3.4160  -26.0620   21.4370 C   0  0  0  0  0  0  0  0  0  0  0  0
    2.9530  -27.1250   21.3790 N   0  0  0  0  0  0  0  0  0  0  0  0
    4.7020  -24.2690   20.1850 C   0  0  0  0  0  0  0  0  0  0  0  0
    5.4410  -21.2900   20.4100 N   0  0  0  0  0  0  0  0  0  0  0  0
    6.0130  -17.9690   20.1850 C   0  0  0  0  0  0  0  0  0  0  0  0
    7.3920  -18.2070   20.4070 C   0  0  0  0  0  0  0  0  0  0  0  0
    8.3430  -17.2450   20.0900 C   0  0  0  0  0  0  0  0  0  0  0  0
    7.8990  -16.0600   19.5440 C   0  0  0  0  0  0  0  0  0  0  0  0
    6.6010  -15.7920   19.2960 N   0  0  0  0  0  0  0  0  0  0  0  0
    5.6840  -16.7240   19.6020 C   0  0  0  0  0  0  0  0  0  0  0  0
    4.3590  -16.4330   19.3160 C   0  0  0  0  0  0  0  0  0  0  0  0
    1.3240  -16.6390   18.0460 C   0  0  0  0  0  0  0  0  0  0  0  0
    1.9350  -16.4890   16.6860 C   0  0  0  0  0  0  0  0  0  0  0  0
    1.7380  -17.6540   15.8770 O   0  0  0  0  0  0  0  0  0  0  0  0
    0.0110  -16.3940   18.2090 N   0  0  0  0  0  0  0  0  0  0  0  0
  1  2  1  0
  2  3  1  0
  3  4  2  0
  4  5  1  0
  5  6  2  0
  6  7  1  0
  7  8  1  0
  8  9  1  0
  9 10  2  0
 10 11  1  0
 11 12  1  0
 12 13  1  6
 13 14  1  0
 14 15  3  0
 12 16  1  0
 16 17  1  0
 17 18  1  6
 18 19  3  0
 17 20  1  0
 11 21  1  0
  7 22  2  0
 22 23  1  0
 23 24  2  0
 24 25  1  0
 25 26  2  0
 26 27  1  0
 27 28  2  0
  4 29  1  0
 29 30  1  0
 30 31  1  0
 29 32  2  0
 32  2  1  0
 28  5  1  0
 21  8  2  0
 27 22  1  0
 20 12  1  0
M  END
$$$$
