PGUCNZCUWCLRQN-UHFFFAOYSA-N_6N7A_m9
     RDKit          3D

 29 32  0  0  0  0  0  0  0  0999 V2000
    5.7100  -28.9620   23.8650 C   0  0  0  0  0  0  0  0  0  0  0  0
    6.1470  -27.5640   23.4470 C   0  0  0  0  0  0  0  0  0  0  0  0
    5.0880  -26.8570   22.6290 C   0  0  0  0  0  0  0  0  0  0  0  0
    3.9170  -27.5700   22.3050 C   0  0  0  0  0  0  0  0  0  0  0  0
    2.9120  -26.9800   21.5500 C   0  0  0  0  0  0  0  0  0  0  0  0
    1.8050  -27.7250   21.2710 O   0  0  0  0  0  0  0  0  0  0  0  0
    3.0390  -25.6760   21.0980 C   0  0  0  0  0  0  0  0  0  0  0  0
    4.1940  -24.9560   21.4100 C   0  0  0  0  0  0  0  0  0  0  0  0
    5.2360  -25.5240   22.1760 C   0  0  0  0  0  0  0  0  0  0  0  0
    6.4230  -24.7090   22.4720 C   0  0  0  0  0  0  0  0  0  0  0  0
    7.4790  -25.2020   23.2260 C   0  0  0  0  0  0  0  0  0  0  0  0
    8.5780  -24.3860   23.4810 C   0  0  0  0  0  0  0  0  0  0  0  0
    9.5870  -24.8570   24.3180 N   0  0  0  0  0  0  0  0  0  0  0  0
    8.5570  -23.0650   22.9960 C   0  0  0  0  0  0  0  0  0  0  0  0
    9.6440  -22.1110   23.3200 C   0  0  0  0  0  0  0  0  0  0  0  0
    9.7840  -21.5430   24.4810 N   0  0  0  0  0  0  0  0  0  0  0  0
    7.4680  -22.6370   22.2180 C   0  0  0  0  0  0  0  0  0  0  0  0
    7.4310  -21.3550   21.6300 N   0  0  0  0  0  0  0  0  0  0  0  0
    7.0170  -21.0760   20.2800 C   0  0  0  0  0  0  0  0  0  0  0  0
    5.8680  -20.2330   20.8680 C   0  0  0  0  0  0  0  0  0  0  0  0
    5.6200  -18.9770   20.1990 O   0  0  0  0  0  0  0  0  0  0  0  0
    4.3290  -18.5170   20.1180 C   0  0  0  0  0  0  0  0  0  0  0  0
    3.5680  -18.4630   18.9510 C   0  0  0  0  0  0  0  0  0  0  0  0
    2.2600  -17.9690   18.9930 C   0  0  0  0  0  0  0  0  0  0  0  0
    1.7150  -17.5250   20.1980 C   0  0  0  0  0  0  0  0  0  0  0  0
    2.4780  -17.5720   21.3630 C   0  0  0  0  0  0  0  0  0  0  0  0
    3.7820  -18.0650   21.3210 C   0  0  0  0  0  0  0  0  0  0  0  0
    6.7330  -20.2080   22.1420 C   0  0  0  0  0  0  0  0  0  0  0  0
    6.4130  -23.4510   21.9730 N   0  0  0  0  0  0  0  0  0  0  0  0
  1  2  1  0
  2  3  1  0
  3  4  2  0
  4  5  1  0
  5  6  1  0
  5  7  2  0
  7  8  1  0
  8  9  2  0
  9 10  1  0
 10 11  2  0
 11 12  1  0
 12 13  1  0
 12 14  2  0
 14 15  1  0
 15 16  2  3
 14 17  1  0
 17 18  1  0
 18 19  1  0
 19 20  1  0
 20 21  1  0
 21 22  1  0
 22 23  2  0
 23 24  1  0
 24 25  2  0
 25 26  1  0
 26 27  2  0
 20 28  1  0
 17 29  2  0
  9  3  1  0
 29 10  1  0
 28 18  1  0
 27 22  1  0
M  END
$$$$
