PGUCNZCUWCLRQN-UHFFFAOYSA-N_6N7A_m3
     RDKit          3D

 29 32  0  0  0  0  0  0  0  0999 V2000
    3.4250  -19.1210   23.0400 C   0  0  0  0  0  0  0  0  0  0  0  0
    3.8000  -20.0410   21.8860 C   0  0  0  0  0  0  0  0  0  0  0  0
    3.7740  -19.3230   20.5530 C   0  0  0  0  0  0  0  0  0  0  0  0
    2.5320  -18.8600   20.0760 C   0  0  0  0  0  0  0  0  0  0  0  0
    2.4410  -18.2020   18.8570 C   0  0  0  0  0  0  0  0  0  0  0  0
    1.2090  -17.7800   18.4530 O   0  0  0  0  0  0  0  0  0  0  0  0
    3.5700  -17.9860   18.0820 C   0  0  0  0  0  0  0  0  0  0  0  0
    4.8080  -18.4400   18.5410 C   0  0  0  0  0  0  0  0  0  0  0  0
    4.9380  -19.1120   19.7760 C   0  0  0  0  0  0  0  0  0  0  0  0
    6.2730  -19.5600   20.2010 C   0  0  0  0  0  0  0  0  0  0  0  0
    7.3660  -18.7040   20.1940 C   0  0  0  0  0  0  0  0  0  0  0  0
    8.6100  -19.1790   20.6020 C   0  0  0  0  0  0  0  0  0  0  0  0
    9.7190  -18.3420   20.5000 N   0  0  0  0  0  0  0  0  0  0  0  0
    8.7210  -20.5340   20.9690 C   0  0  0  0  0  0  0  0  0  0  0  0
   10.0330  -21.1310   21.3120 C   0  0  0  0  0  0  0  0  0  0  0  0
   10.8930  -21.5400   20.4270 N   0  0  0  0  0  0  0  0  0  0  0  0
    7.5690  -21.3380   20.9780 C   0  0  0  0  0  0  0  0  0  0  0  0
    7.6000  -22.6770   21.4210 N   0  0  0  0  0  0  0  0  0  0  0  0
    7.1100  -23.1400   22.6930 C   0  0  0  0  0  0  0  0  0  0  0  0
    6.0870  -23.9980   21.9230 C   0  0  0  0  0  0  0  0  0  0  0  0
    5.8990  -25.3370   22.4310 O   0  0  0  0  0  0  0  0  0  0  0  0
    4.7650  -26.0230   22.0740 C   0  0  0  0  0  0  0  0  0  0  0  0
    3.6790  -25.4790   21.3900 C   0  0  0  0  0  0  0  0  0  0  0  0
    2.5740  -26.2800   21.0850 C   0  0  0  0  0  0  0  0  0  0  0  0
    2.5500  -27.6200   21.4670 C   0  0  0  0  0  0  0  0  0  0  0  0
    3.6320  -28.1630   22.1580 C   0  0  0  0  0  0  0  0  0  0  0  0
    4.7350  -27.3650   22.4620 C   0  0  0  0  0  0  0  0  0  0  0  0
    7.0460  -23.8110   20.7320 C   0  0  0  0  0  0  0  0  0  0  0  0
    6.3660  -20.8530   20.5860 N   0  0  0  0  0  0  0  0  0  0  0  0
  1  2  1  0
  2  3  1  0
  3  4  2  0
  4  5  1  0
  5  6  1  0
  5  7  2  0
  7  8  1  0
  8  9  2  0
  9 10  1  0
 10 11  2  0
 11 12  1  0
 12 13  1  0
 12 14  2  0
 14 15  1  0
 15 16  2  3
 14 17  1  0
 17 18  1  0
 18 19  1  0
 19 20  1  0
 20 21  1  0
 21 22  1  0
 22 23  2  0
 23 24  1  0
 24 25  2  0
 25 26  1  0
 26 27  2  0
 20 28  1  0
 17 29  2  0
  9  3  1  0
 29 10  1  0
 28 18  1  0
 27 22  1  0
M  END
$$$$
