PKRKWOVHSNTKAH-KDURUIRLSA-N_6N7A_m6
     RDKit          3D

 44 49  0  0  0  0  0  0  0  0999 V2000
   -4.1710  -17.2480   18.1200 C   0  0  0  0  0  0  0  0  0  0  0  0
   -3.9710  -16.4130   19.2530 O   0  0  0  0  0  0  0  0  0  0  0  0
   -4.0030  -15.0280   18.8950 C   0  0  0  0  0  0  0  0  0  0  0  0
   -2.9510  -14.3030   19.7270 C   0  0  0  0  0  0  0  0  0  0  0  0
   -1.7160  -15.1590   20.0170 C   0  0  0  0  0  0  0  0  0  0  0  0
   -0.6580  -15.0480   19.0070 N   0  0  0  0  0  0  0  0  0  0  0  0
   -0.2760  -16.3680   18.4860 C   0  0  0  0  0  0  0  0  0  0  0  0
    1.0450  -16.0960   17.7680 C   0  0  2  0  0  0  0  0  0  0  0  0
    2.0950  -17.1750   17.9970 C   0  0  0  0  0  0  0  0  0  0  0  0
    3.0050  -16.6260   18.9870 N   0  0  0  0  0  0  0  0  0  0  0  0
    3.8550  -17.4530   19.6960 C   0  0  0  0  0  0  0  0  0  0  0  0
    3.8460  -17.4570   20.9300 O   0  0  0  0  0  0  0  0  0  0  0  0
    4.8200  -18.3350   18.9310 C   0  0  0  0  0  0  0  0  0  0  0  0
    5.1030  -19.5570   19.6590 N   0  0  0  0  0  0  0  0  0  0  0  0
    4.3010  -20.6580   19.7380 C   0  0  0  0  0  0  0  0  0  0  0  0
    4.9440  -21.5450   20.5650 C   0  0  0  0  0  0  0  0  0  0  0  0
    4.5120  -22.7850   20.9930 N   0  0  0  0  0  0  0  0  0  0  0  0
    4.6260  -23.9720   20.3060 C   0  0  0  0  0  0  0  0  0  0  0  0
    5.1120  -24.1080   19.1860 O   0  0  0  0  0  0  0  0  0  0  0  0
    4.1150  -25.1190   21.0400 C   0  0  0  0  0  0  0  0  0  0  0  0
    2.7960  -25.6110   21.0580 C   0  0  0  0  0  0  0  0  0  0  0  0
    2.6440  -26.6920   21.8260 N   0  0  0  0  0  0  0  0  0  0  0  0
    3.8770  -26.9180   22.3320 N   0  0  0  0  0  0  0  0  0  0  0  0
    4.2710  -27.9330   23.2000 C   0  0  0  0  0  0  0  0  0  0  0  0
    5.5430  -28.0150   23.6130 C   0  0  0  0  0  0  0  0  0  0  0  0
    6.4530  -26.9670   23.0740 C   0  0  0  0  0  0  0  0  0  0  0  0
    6.1260  -26.0080   22.2560 N   0  0  0  0  0  0  0  0  0  0  0  0
    4.8070  -25.9760   21.8750 C   0  0  0  0  0  0  0  0  0  0  0  0
    6.1810  -20.9110   20.8830 C   0  0  0  0  0  0  0  0  0  0  0  0
    7.2550  -21.4240   21.7200 C   0  0  0  0  0  0  0  0  0  0  0  0
    7.6770  -22.7490   21.5610 C   0  0  0  0  0  0  0  0  0  0  0  0
    8.6720  -23.2640   22.3910 C   0  0  0  0  0  0  0  0  0  0  0  0
    9.1760  -24.8980   22.2060 Cl  0  0  0  0  0  0  0  0  0  0  0  0
    9.2520  -22.4710   23.3820 C   0  0  0  0  0  0  0  0  0  0  0  0
    8.8460  -21.1450   23.5360 C   0  0  0  0  0  0  0  0  0  0  0  0
    7.8670  -20.6190   22.6910 C   0  0  0  0  0  0  0  0  0  0  0  0
    7.4820  -19.3160   22.8760 O   0  0  0  0  0  0  0  0  0  0  0  0
    8.5760  -18.4450   22.5880 C   0  0  0  0  0  0  0  0  0  0  0  0
    8.0720  -17.3790   21.9160 F   0  0  0  0  0  0  0  0  0  0  0  0
    9.0570  -17.9670   23.7670 F   0  0  0  0  0  0  0  0  0  0  0  0
    6.2810  -19.7100   20.2980 N   0  0  0  0  0  0  0  0  0  0  0  0
    2.9800  -15.1740   18.9440 C   0  0  0  0  0  0  0  0  0  0  0  0
    1.5950  -14.8220   18.4270 C   0  0  2  0  0  0  0  0  0  0  0  0
    0.5950  -14.4980   19.5340 C   0  0  0  0  0  0  0  0  0  0  0  0
  1  2  1  0
  2  3  1  0
  3  4  1  0
  4  5  1  0
  5  6  1  0
  6  7  1  0
  8  7  1  1
  8  9  1  0
  9 10  1  0
 10 11  1  0
 11 12  2  0
 11 13  1  0
 13 14  1  0
 14 15  1  0
 15 16  2  0
 16 17  1  0
 17 18  1  0
 18 19  2  0
 18 20  1  0
 20 21  1  0
 21 22  2  0
 22 23  1  0
 23 24  1  0
 24 25  2  0
 25 26  1  0
 26 27  2  0
 27 28  1  0
 16 29  1  0
 29 30  1  0
 30 31  2  0
 31 32  1  0
 32 33  1  0
 32 34  2  0
 34 35  1  0
 35 36  2  0
 36 37  1  0
 37 38  1  0
 38 39  1  0
 38 40  1  0
 29 41  2  0
 10 42  1  0
 43 42  1  1
 43 44  1  0
 44  6  1  0
 43  8  1  0
 41 14  1  0
 28 20  2  0
 36 30  1  0
 28 23  1  0
M  END
$$$$
