PMNFGEHMTFKKPU-GOSISDBHSA-N_6N7A_m3
     RDKit          3D

 30 33  0  0  0  0  0  0  0  0999 V2000
   11.1700  -24.4970   25.5390 C   0  0  0  0  0  0  0  0  0  0  0  0
   10.5800  -25.6470   24.7330 C   0  0  0  0  0  0  0  0  0  0  0  0
    9.3880  -26.3300   25.4320 C   0  0  0  0  0  0  0  0  0  0  0  0
    9.7910  -27.7300   25.9390 C   0  0  0  0  0  0  0  0  0  0  0  0
   10.3980  -27.7110   27.3360 C   0  0  0  0  0  0  0  0  0  0  0  0
    8.2070  -26.3820   24.5730 N   0  0  0  0  0  0  0  0  0  0  0  0
    7.6470  -25.3570   23.8600 C   0  0  0  0  0  0  0  0  0  0  0  0
    6.5610  -25.8840   23.1870 C   0  0  0  0  0  0  0  0  0  0  0  0
    5.6100  -25.2350   22.3050 C   0  0  0  0  0  0  0  0  0  0  0  0
    5.9090  -24.0350   21.8940 N   0  0  0  0  0  0  0  0  0  0  0  0
    5.0440  -23.3880   21.0280 C   0  0  0  0  0  0  0  0  0  0  0  0
    5.4770  -22.0810   20.6340 C   0  0  0  0  0  0  0  0  0  0  0  0
    6.7680  -21.5160   20.7480 C   0  0  0  0  0  0  0  0  0  0  0  0
    6.8310  -20.2690   20.2700 N   0  0  0  0  0  0  0  0  0  0  0  0
    5.5720  -20.0250   19.8610 N   0  0  0  0  0  0  0  0  0  0  0  0
    5.2400  -18.7430   19.2800 C   0  0  0  0  0  0  0  0  0  0  0  0
    4.0800  -18.8020   18.2820 C   0  0  2  0  0  0  0  0  0  0  0  0
    4.5730  -18.5030   16.9630 O   0  0  0  0  0  0  0  0  0  0  0  0
    2.9310  -17.8290   18.6160 C   0  0  0  0  0  0  0  0  0  0  0  0
    1.8320  -18.5220   19.3190 N   0  0  0  0  0  0  0  0  0  0  0  0
    1.8160  -18.1430   20.7290 C   0  0  0  0  0  0  0  0  0  0  0  0
    4.7250  -21.0810   20.0560 C   0  0  0  0  0  0  0  0  0  0  0  0
    3.9070  -23.9610   20.5930 C   0  0  0  0  0  0  0  0  0  0  0  0
    3.5700  -25.2250   21.0350 N   0  0  0  0  0  0  0  0  0  0  0  0
    2.4700  -25.9530   20.7240 N   0  0  0  0  0  0  0  0  0  0  0  0
    2.5810  -27.0580   21.4600 C   0  0  0  0  0  0  0  0  0  0  0  0
    3.7530  -27.0740   22.2330 C   0  0  0  0  0  0  0  0  0  0  0  0
    4.3940  -25.8970   21.9160 C   0  0  0  0  0  0  0  0  0  0  0  0
    6.5430  -27.2370   23.6050 C   0  0  0  0  0  0  0  0  0  0  0  0
    7.5490  -27.5450   24.4270 N   0  0  0  0  0  0  0  0  0  0  0  0
  1  2  1  0
  2  3  1  0
  3  4  1  0
  4  5  1  0
  3  6  1  0
  6  7  1  0
  7  8  2  0
  8  9  1  0
  9 10  2  0
 10 11  1  0
 11 12  1  0
 12 13  1  0
 13 14  2  0
 14 15  1  0
 15 16  1  0
 16 17  1  0
 17 18  1  6
 17 19  1  0
 19 20  1  0
 20 21  1  0
 15 22  1  0
 11 23  2  0
 23 24  1  0
 24 25  1  0
 25 26  2  0
 26 27  1  0
 27 28  2  0
  8 29  1  0
 29 30  2  0
 30  6  1  0
 28  9  1  0
 22 12  2  0
 28 24  1  0
M  END
$$$$
