PNHFDVSKDSLUFH-UHFFFAOYSA-N_9V8H_m9
     RDKit          3D

 30 32  0  0  0  0  0  0  0  0999 V2000
  -13.8340   -5.5080  -27.4560 C   0  0  0  0  0  0  0  0  0  0  0  0
  -12.7090   -6.3270  -26.8930 C   0  0  0  0  0  0  0  0  0  0  0  0
  -11.5480   -6.5450  -27.6440 C   0  0  0  0  0  0  0  0  0  0  0  0
  -10.5140   -7.3350  -27.1350 C   0  0  0  0  0  0  0  0  0  0  0  0
  -10.6240   -7.9230  -25.8670 C   0  0  0  0  0  0  0  0  0  0  0  0
   -9.5100   -8.7800  -25.3230 C   0  0  0  0  0  0  0  0  0  0  0  0
   -9.2100   -8.4580  -23.9440 N   0  0  0  0  0  0  0  0  0  0  0  0
   -8.3730   -7.4470  -23.6160 N   0  0  0  0  0  0  0  0  0  0  0  0
   -8.4370   -7.4770  -22.2750 C   0  0  0  0  0  0  0  0  0  0  0  0
   -7.6630   -6.5440  -21.4130 C   0  0  0  0  0  0  0  0  0  0  0  0
   -6.9050   -7.2430  -20.2780 C   0  0  0  0  0  0  0  0  0  0  0  0
   -6.4550   -6.3140  -19.1440 C   0  0  0  0  0  0  0  0  0  0  0  0
   -5.4410   -5.2850  -19.5730 C   0  0  0  0  0  0  0  0  0  0  0  0
   -4.4060   -5.6290  -20.4510 C   0  0  0  0  0  0  0  0  0  0  0  0
   -3.4580   -4.6790  -20.8510 C   0  0  0  0  0  0  0  0  0  0  0  0
   -3.5280   -3.3700  -20.3790 C   0  0  0  0  0  0  0  0  0  0  0  0
   -2.6810   -2.3420  -20.6690 O   0  0  0  0  0  0  0  0  0  0  0  0
   -3.0600   -1.2490  -21.5110 C   0  0  0  0  0  0  0  0  0  0  0  0
   -3.4840   -1.9270  -22.8290 C   0  0  0  0  0  0  0  0  0  0  0  0
   -1.8520   -0.3480  -21.8160 C   0  0  0  0  0  0  0  0  0  0  0  0
   -4.3040   -0.4600  -21.0530 C   0  0  0  0  0  0  0  0  0  0  0  0
   -4.3750    0.3430  -20.1340 O   0  0  0  0  0  0  0  0  0  0  0  0
   -5.4220   -0.7580  -21.7520 O   0  0  0  0  0  0  0  0  0  0  0  0
   -4.5530   -3.0300  -19.4900 C   0  0  0  0  0  0  0  0  0  0  0  0
   -5.5050   -3.9740  -19.0930 C   0  0  0  0  0  0  0  0  0  0  0  0
   -9.2890   -8.4210  -21.7510 N   0  0  0  0  0  0  0  0  0  0  0  0
   -9.7500   -9.0080  -22.8220 C   0  0  0  0  0  0  0  0  0  0  0  0
  -10.6280   -9.9870  -22.7860 O   0  0  0  0  0  0  0  0  0  0  0  0
  -11.7980   -7.7230  -25.1290 C   0  0  0  0  0  0  0  0  0  0  0  0
  -12.8320   -6.9340  -25.6380 C   0  0  0  0  0  0  0  0  0  0  0  0
  1  2  1  0
  2  3  2  0
  3  4  1  0
  4  5  2  0
  5  6  1  0
  6  7  1  0
  7  8  1  0
  8  9  2  0
  9 10  1  0
 10 11  1  0
 11 12  1  0
 12 13  1  0
 13 14  2  0
 14 15  1  0
 15 16  2  0
 16 17  1  0
 17 18  1  0
 18 19  1  0
 18 20  1  0
 18 21  1  0
 21 22  2  0
 21 23  1  0
 16 24  1  0
 24 25  2  0
  9 26  1  0
 26 27  2  0
 27 28  1  0
  5 29  1  0
 29 30  2  0
 30  2  1  0
 27  7  1  0
 25 13  1  0
M  END
$$$$
