PPSVTOJQRIASNE-UHFFFAOYSA-N_4EY7_m5
     RDKit          3D

 34 36  0  0  0  0  0  0  0  0999 V2000
  -21.3170  -41.8870   22.1310 C   0  0  0  0  0  0  0  0  0  0  0  0
  -20.5760  -40.9880   23.1450 C   0  0  0  0  0  0  0  0  0  0  0  0
  -20.2850  -39.6460   22.4380 C   0  0  0  0  0  0  0  0  0  0  0  0
  -21.5380  -40.7400   24.3260 C   0  0  0  0  0  0  0  0  0  0  0  0
  -19.2620  -41.5930   23.6680 C   0  0  0  0  0  0  0  0  0  0  0  0
  -18.1830  -41.9090   22.8310 C   0  0  0  0  0  0  0  0  0  0  0  0
  -16.9960  -42.4600   23.3430 C   0  0  0  0  0  0  0  0  0  0  0  0
  -16.8360  -42.7170   24.7050 C   0  0  0  0  0  0  0  0  0  0  0  0
  -15.6920  -43.2620   25.2530 N   0  0  0  0  0  0  0  0  0  0  0  0
  -14.5190  -42.4890   25.6150 C   0  0  0  0  0  0  0  0  0  0  0  0
  -13.5710  -43.3150   26.4880 C   0  0  0  0  0  0  0  0  0  0  0  0
  -14.1350  -44.7020   26.8200 C   0  0  0  0  0  0  0  0  0  0  0  0
  -13.0550  -45.7840   26.9340 C   0  0  0  0  0  0  0  0  0  0  0  0
  -12.2810  -45.7310   28.2530 C   0  0  0  0  0  0  0  0  0  0  0  0
  -13.1230  -46.1470   29.4640 C   0  0  0  0  0  0  0  0  0  0  0  0
  -13.7810  -44.9610   30.1790 C   0  0  0  0  0  0  0  0  0  0  0  0
  -13.1610  -44.6850   31.5520 C   0  0  0  0  0  0  0  0  0  0  0  0
  -12.3330  -43.4920   31.5410 N   0  0  0  0  0  0  0  0  0  0  0  0
  -10.9480  -43.4550   31.4210 C   0  0  0  0  0  0  0  0  0  0  0  0
  -10.1190  -43.7840   32.4960 C   0  0  0  0  0  0  0  0  0  0  0  0
   -8.7470  -43.7320   32.3410 C   0  0  0  0  0  0  0  0  0  0  0  0
   -8.1350  -43.3750   31.2000 N   0  0  0  0  0  0  0  0  0  0  0  0
   -8.9050  -43.0470   30.1570 C   0  0  0  0  0  0  0  0  0  0  0  0
   -8.2570  -42.6740   28.9870 C   0  0  0  0  0  0  0  0  0  0  0  0
   -8.9510  -42.3020   27.8270 C   0  0  0  0  0  0  0  0  0  0  0  0
   -8.1970  -41.9270   26.5780 C   0  0  0  0  0  0  0  0  0  0  0  0
   -7.7630  -40.6350   26.5820 F   0  0  0  0  0  0  0  0  0  0  0  0
   -8.9550  -42.0620   25.4560 F   0  0  0  0  0  0  0  0  0  0  0  0
   -7.0860  -42.6890   26.3760 F   0  0  0  0  0  0  0  0  0  0  0  0
  -10.3440  -42.3220   27.8530 C   0  0  0  0  0  0  0  0  0  0  0  0
  -11.0180  -42.6940   29.0200 C   0  0  0  0  0  0  0  0  0  0  0  0
  -10.3210  -43.0650   30.1980 C   0  0  0  0  0  0  0  0  0  0  0  0
  -17.9120  -42.4070   25.5410 C   0  0  0  0  0  0  0  0  0  0  0  0
  -19.0980  -41.8570   25.0380 C   0  0  0  0  0  0  0  0  0  0  0  0
  1  2  1  0
  2  3  1  0
  2  4  1  0
  2  5  1  0
  5  6  2  0
  6  7  1  0
  7  8  2  0
  8  9  1  0
  9 10  1  0
 10 11  1  0
 11 12  1  0
 12 13  1  0
 13 14  1  0
 14 15  1  0
 15 16  1  0
 16 17  1  0
 17 18  1  0
 18 19  1  0
 19 20  2  0
 20 21  1  0
 21 22  2  0
 22 23  1  0
 23 24  2  0
 24 25  1  0
 25 26  1  0
 26 27  1  0
 26 28  1  0
 26 29  1  0
 25 30  2  0
 30 31  1  0
 31 32  2  0
  8 33  1  0
 33 34  2  0
 34  5  1  0
 32 19  1  0
 32 23  1  0
M  END
$$$$
