PTKRHBXNNDLRPO-OAQYLSRUSA-N_3POZ_m9
     RDKit          3D

 40 45  0  0  0  0  0  0  0  0999 V2000
   25.5940   33.3450   17.3940 C   0  0  0  0  0  0  0  0  0  0  0  0
   25.1780   34.6580   17.0330 O   0  0  0  0  0  0  0  0  0  0  0  0
   24.1720   35.2180   17.7760 C   0  0  0  0  0  0  0  0  0  0  0  0
   24.3190   35.6360   19.0920 C   0  0  0  0  0  0  0  0  0  0  0  0
   23.2450   36.2320   19.7550 C   0  0  0  0  0  0  0  0  0  0  0  0
   22.0270   36.4630   19.1350 C   0  0  0  0  0  0  0  0  0  0  0  0
   21.0930   37.0770   19.8640 N   0  0  0  0  0  0  0  0  0  0  0  0
   19.9360   37.3370   19.2560 C   0  0  0  0  0  0  0  0  0  0  0  0
   19.6410   37.0600   17.9880 N   0  0  0  0  0  0  0  0  0  0  0  0
   20.5820   36.4300   17.2550 C   0  0  0  0  0  0  0  0  0  0  0  0
   20.3190   36.2060   15.8880 N   0  0  0  0  0  0  0  0  0  0  0  0
   19.2990   35.5020   15.2250 C   0  0  0  0  0  0  0  0  0  0  0  0
   19.6520   34.5840   14.2250 C   0  0  0  0  0  0  0  0  0  0  0  0
   18.6820   33.8580   13.5330 C   0  0  0  0  0  0  0  0  0  0  0  0
   17.3350   34.0370   13.8400 C   0  0  0  0  0  0  0  0  0  0  0  0
   16.3990   33.3430   13.1100 O   0  0  0  0  0  0  0  0  0  0  0  0
   16.3900   33.5340   11.7220 C   0  0  0  0  0  0  0  0  0  0  0  0
   16.5510   32.4280   10.9660 C   0  0  0  0  0  0  0  0  0  0  0  0
   16.5620   32.5570    9.5630 C   0  0  0  0  0  0  0  0  0  0  0  0
   16.6880   31.7240    8.5540 N   0  0  0  0  0  0  0  0  0  0  0  0
   16.6030   32.5560    7.4660 C   0  0  0  0  0  0  0  0  0  0  0  0
   16.4330   33.8560    7.7370 N   0  0  0  0  0  0  0  0  0  0  0  0
   16.4100   33.8260    9.0830 N   0  0  0  0  0  0  0  0  0  0  0  0
   16.2470   34.9360    9.8930 C   0  0  0  0  0  0  0  0  0  0  0  0
   16.2310   34.8110   11.1890 N   0  0  0  0  0  0  0  0  0  0  0  0
   16.9400   34.9670   14.8070 C   0  0  0  0  0  0  0  0  0  0  0  0
   15.4940   35.1820   15.1420 C   0  0  0  0  0  0  0  0  0  0  0  0
   17.9360   35.6760   15.5030 C   0  0  0  0  0  0  0  0  0  0  0  0
   21.8410   36.0640   17.8030 C   0  0  0  0  0  0  0  0  0  0  0  0
   22.9150   35.3640   17.1570 C   0  0  0  0  0  0  0  0  0  0  0  0
   22.7070   34.9010   15.8740 O   0  0  0  0  0  0  0  0  0  0  0  0
   23.7520   35.2680   14.9380 C   0  0  2  0  0  0  0  0  0  0  0  0
   23.4210   36.6730   14.4320 C   0  0  0  0  0  0  0  0  0  0  0  0
   24.3880   37.1130   13.3350 C   0  0  0  0  0  0  0  0  0  0  0  0
   24.4700   36.1890   12.1950 N   0  0  0  0  0  0  0  0  0  0  0  0
   23.2870   36.2770   11.3350 C   0  0  0  0  0  0  0  0  0  0  0  0
   24.7110   34.8010   12.6480 C   0  0  0  0  0  0  0  0  0  0  0  0
   23.7940   34.2850   13.7660 C   0  0  0  0  0  0  0  0  0  0  0  0
   24.2390   33.0740   14.1910 F   0  0  0  0  0  0  0  0  0  0  0  0
   22.5390   34.0840   13.2830 F   0  0  0  0  0  0  0  0  0  0  0  0
  1  2  1  0
  2  3  1  0
  3  4  2  0
  4  5  1  0
  5  6  2  0
  6  7  1  0
  7  8  2  0
  8  9  1  0
  9 10  2  0
 10 11  1  0
 11 12  1  0
 12 13  2  0
 13 14  1  0
 14 15  2  0
 15 16  1  0
 16 17  1  0
 17 18  2  0
 18 19  1  0
 19 20  2  0
 20 21  1  0
 21 22  2  0
 22 23  1  0
 23 24  1  0
 24 25  2  0
 15 26  1  0
 26 27  1  0
 26 28  2  0
 10 29  1  0
 29 30  2  0
 30 31  1  0
 32 31  1  1
 32 33  1  0
 33 34  1  0
 34 35  1  0
 35 36  1  0
 35 37  1  0
 37 38  1  0
 38 39  1  0
 38 40  1  0
 30  3  1  0
 38 32  1  0
 29  6  1  0
 28 12  1  0
 25 17  1  0
 23 19  1  0
M  END
$$$$
