PUPKZNCFZQRDIJ-UHFFFAOYSA-N_6N7A_m7
     RDKit          3D

 30 34  0  0  0  0  0  0  0  0999 V2000
    2.1530  -27.3310   21.2850 C   0  0  0  0  0  0  0  0  0  0  0  0
    3.3010  -26.5090   21.5570 N   0  0  0  0  0  0  0  0  0  0  0  0
    3.5640  -25.2510   21.1040 C   0  0  0  0  0  0  0  0  0  0  0  0
    4.7820  -24.9450   21.6690 C   0  0  0  0  0  0  0  0  0  0  0  0
    5.5440  -23.7160   21.5230 C   0  0  0  0  0  0  0  0  0  0  0  0
    4.8810  -22.4870   21.5510 C   0  0  0  0  0  0  0  0  0  0  0  0
    5.5920  -21.2870   21.4130 C   0  0  0  0  0  0  0  0  0  0  0  0
    4.8410  -20.0430   21.4480 C   0  0  0  0  0  0  0  0  0  0  0  0
    4.4260  -19.2950   22.5690 C   0  0  0  0  0  0  0  0  0  0  0  0
    3.7710  -18.2010   22.1760 N   0  0  0  0  0  0  0  0  0  0  0  0
    3.7990  -18.3300   20.8360 N   0  0  0  0  0  0  0  0  0  0  0  0
    3.2350  -17.3000   19.9170 C   0  0  1  0  0  0  0  0  0  0  0  0
    4.2750  -16.8610   18.8840 C   0  0  0  0  0  0  0  0  0  0  0  0
    5.2060  -15.8610   19.4280 C   0  0  0  0  0  0  0  0  0  0  0  0
    5.9430  -15.0750   19.8560 N   0  0  0  0  0  0  0  0  0  0  0  0
    1.8730  -17.7840   19.3270 C   0  0  0  0  0  0  0  0  0  0  0  0
    1.3250  -16.3510   19.5460 C   0  0  1  0  0  0  0  0  0  0  0  0
   -0.0450  -16.2630   20.0010 C   0  0  0  0  0  0  0  0  0  0  0  0
   -1.1470  -16.1910   20.3560 N   0  0  0  0  0  0  0  0  0  0  0  0
    2.4160  -16.1780   20.6330 C   0  0  0  0  0  0  0  0  0  0  0  0
    4.4180  -19.4210   20.3370 N   0  0  0  0  0  0  0  0  0  0  0  0
    7.0030  -21.3060   21.2500 C   0  0  0  0  0  0  0  0  0  0  0  0
    7.8140  -20.1540   21.1250 C   0  0  0  0  0  0  0  0  0  0  0  0
    9.1910  -20.2680   20.9760 C   0  0  0  0  0  0  0  0  0  0  0  0
    9.7320  -21.5350   20.9550 C   0  0  0  0  0  0  0  0  0  0  0  0
    9.0010  -22.6640   21.0750 N   0  0  0  0  0  0  0  0  0  0  0  0
    7.6690  -22.5510   21.2200 C   0  0  0  0  0  0  0  0  0  0  0  0
    6.9330  -23.7190   21.3550 C   0  0  0  0  0  0  0  0  0  0  0  0
    5.2000  -26.0100   22.4290 N   0  0  0  0  0  0  0  0  0  0  0  0
    4.2820  -26.9640   22.3500 N   0  0  0  0  0  0  0  0  0  0  0  0
  1  2  1  0
  2  3  1  0
  3  4  2  0
  4  5  1  0
  5  6  2  0
  6  7  1  0
  7  8  1  0
  8  9  1  0
  9 10  2  0
 10 11  1  0
 11 12  1  0
 12 13  1  6
 13 14  1  0
 14 15  3  0
 12 16  1  0
 16 17  1  0
 17 18  1  1
 18 19  3  0
 17 20  1  0
 11 21  1  0
  7 22  2  0
 22 23  1  0
 23 24  2  0
 24 25  1  0
 25 26  2  0
 26 27  1  0
 27 28  2  0
  4 29  1  0
 29 30  2  0
 30  2  1  0
 28  5  1  0
 21  8  2  0
 27 22  1  0
 20 12  1  0
M  END
$$$$
