PUUJLIQLJNLBPS-HSZRJFAPSA-N_6N7A_m4
     RDKit          3D

 42 46  0  0  0  0  0  0  0  0999 V2000
    1.6850  -16.5460   16.3930 C   0  0  0  0  0  0  0  0  0  0  0  0
    2.5170  -15.8780   17.4840 C   0  0  0  0  0  0  0  0  0  0  0  0
    1.6520  -15.3150   18.6370 C   0  0  2  0  0  0  0  0  0  0  0  0
    2.2030  -15.8980   19.9670 C   0  0  0  0  0  0  0  0  0  0  0  0
    2.1500  -15.2480   21.0070 O   0  0  0  0  0  0  0  0  0  0  0  0
    2.7390  -17.1640   19.8100 N   0  0  0  0  0  0  0  0  0  0  0  0
    3.3770  -17.9930   20.7530 C   0  0  0  0  0  0  0  0  0  0  0  0
    2.5930  -18.4420   21.8310 C   0  0  0  0  0  0  0  0  0  0  0  0
    3.1200  -19.2470   22.8360 C   0  0  0  0  0  0  0  0  0  0  0  0
    4.4560  -19.6450   22.7930 C   0  0  0  0  0  0  0  0  0  0  0  0
    5.2790  -19.2350   21.7210 C   0  0  0  0  0  0  0  0  0  0  0  0
    6.6630  -19.4500   21.3910 C   0  0  0  0  0  0  0  0  0  0  0  0
    7.6890  -20.2000   22.1130 C   0  0  0  0  0  0  0  0  0  0  0  0
    7.6960  -21.5400   21.8940 N   0  0  0  0  0  0  0  0  0  0  0  0
    8.5850  -22.2870   22.5680 C   0  0  0  0  0  0  0  0  0  0  0  0
    8.5310  -23.6510   22.3080 N   0  0  0  0  0  0  0  0  0  0  0  0
    8.2410  -24.7790   23.0880 C   0  0  0  0  0  0  0  0  0  0  0  0
    7.0380  -25.4900   23.0120 C   0  0  0  0  0  0  0  0  0  0  0  0
    6.8080  -26.6130   23.8140 C   0  0  0  0  0  0  0  0  0  0  0  0
    7.7820  -27.0450   24.7090 C   0  0  0  0  0  0  0  0  0  0  0  0
    8.9860  -26.3430   24.8060 C   0  0  0  0  0  0  0  0  0  0  0  0
   10.1980  -26.9290   25.9430 S   0  0  0  0  0  0  0  0  0  0  0  0
   10.0400  -26.0270   27.4580 C   0  0  0  0  0  0  0  0  0  0  0  0
    9.8790  -28.3200   26.2070 O   0  0  0  0  0  0  0  0  0  0  0  0
   11.4860  -26.5600   25.3800 O   0  0  0  0  0  0  0  0  0  0  0  0
    9.2090  -25.2280   24.0080 C   0  0  0  0  0  0  0  0  0  0  0  0
   10.3580  -24.5390   24.0940 F   0  0  0  0  0  0  0  0  0  0  0  0
    9.4720  -21.7720   23.4330 N   0  0  0  0  0  0  0  0  0  0  0  0
    9.4500  -20.4380   23.6180 C   0  0  0  0  0  0  0  0  0  0  0  0
    8.5730  -19.5980   22.9830 C   0  0  0  0  0  0  0  0  0  0  0  0
    8.5920  -18.2850   23.2450 F   0  0  0  0  0  0  0  0  0  0  0  0
    6.8900  -18.7780   20.2060 C   0  0  0  0  0  0  0  0  0  0  0  0
    5.7280  -18.1650   19.8300 N   0  0  0  0  0  0  0  0  0  0  0  0
    4.7170  -18.4170   20.7300 C   0  0  0  0  0  0  0  0  0  0  0  0
    0.2070  -15.6650   18.4960 N   0  0  0  0  0  0  0  0  0  0  0  0
   -0.7100  -14.5190   18.4090 C   0  0  0  0  0  0  0  0  0  0  0  0
   -2.0610  -14.6770   17.6780 C   0  0  0  0  0  0  0  0  0  0  0  0
   -3.1840  -15.4590   18.3560 C   0  0  0  0  0  0  0  0  0  0  0  0
   -2.7780  -16.7320   18.9620 N   0  0  0  0  0  0  0  0  0  0  0  0
   -3.9470  -17.3750   19.5780 C   0  0  0  0  0  0  0  0  0  0  0  0
   -1.7520  -16.5100   20.0060 C   0  0  0  0  0  0  0  0  0  0  0  0
   -0.2890  -16.6110   19.5240 C   0  0  0  0  0  0  0  0  0  0  0  0
  1  2  1  0
  3  2  1  6
  3  4  1  0
  4  5  2  0
  4  6  1  0
  6  7  1  0
  7  8  2  0
  8  9  1  0
  9 10  2  0
 10 11  1  0
 11 12  1  0
 12 13  1  0
 13 14  2  0
 14 15  1  0
 15 16  1  0
 16 17  1  0
 17 18  2  0
 18 19  1  0
 19 20  2  0
 20 21  1  0
 21 22  1  0
 22 23  1  0
 22 24  2  0
 22 25  2  0
 21 26  2  0
 26 27  1  0
 15 28  2  0
 28 29  1  0
 29 30  2  0
 30 31  1  0
 12 32  2  0
 32 33  1  0
 33 34  1  0
  3 35  1  0
 35 36  1  0
 36 37  1  0
 37 38  1  0
 38 39  1  0
 39 40  1  0
 39 41  1  0
 41 42  1  0
 34  7  1  0
 42 35  1  0
 34 11  2  0
 30 13  1  0
 26 17  1  0
M  END
$$$$
