PVAHNJQQAFBHBW-UHFFFAOYSA-N_4EY7_m2
     RDKit          3D

 31 34  0  0  0  0  0  0  0  0999 V2000
  -21.8170  -38.3120   18.6530 C   0  0  0  0  0  0  0  0  0  0  0  0
  -20.9870  -38.7560   19.4000 C   0  0  0  0  0  0  0  0  0  0  0  0
  -19.9690  -39.2920   20.3130 C   0  0  0  0  0  0  0  0  0  0  0  0
  -19.7710  -40.7300   20.1430 N   0  0  0  0  0  0  0  0  0  0  0  0
  -20.5020  -41.5610   21.0940 C   0  0  0  0  0  0  0  0  0  0  0  0
  -19.7130  -41.8170   22.3310 C   0  0  0  0  0  0  0  0  0  0  0  0
  -18.4180  -42.2650   22.5060 C   0  0  0  0  0  0  0  0  0  0  0  0
  -18.1610  -42.3330   23.9040 C   0  0  0  0  0  0  0  0  0  0  0  0
  -17.0460  -42.7030   24.6790 C   0  0  0  0  0  0  0  0  0  0  0  0
  -17.1220  -42.6600   26.0780 C   0  0  0  0  0  0  0  0  0  0  0  0
  -15.9720  -43.0440   26.7150 O   0  0  0  0  0  0  0  0  0  0  0  0
  -14.7580  -42.4200   26.3010 C   0  0  0  0  0  0  0  0  0  0  0  0
  -13.6560  -43.4780   26.2170 C   0  0  0  0  0  0  0  0  0  0  0  0
  -14.1580  -44.8640   26.6430 C   0  0  0  0  0  0  0  0  0  0  0  0
  -13.4070  -45.5160   27.8190 C   0  0  0  0  0  0  0  0  0  0  0  0
  -11.8840  -45.5010   27.6500 C   0  0  0  0  0  0  0  0  0  0  0  0
  -11.1900  -46.1780   28.8360 C   0  0  0  0  0  0  0  0  0  0  0  0
  -11.5680  -45.5410   30.1090 N   0  0  0  0  0  0  0  0  0  0  0  0
  -10.8750  -46.1690   31.2500 C   0  0  0  0  0  0  0  0  0  0  0  0
   -9.5960  -45.4620   31.6470 C   0  0  0  0  0  0  0  0  0  0  0  0
   -9.6390  -44.2040   32.2670 C   0  0  0  0  0  0  0  0  0  0  0  0
   -8.4630  -43.5590   32.6520 C   0  0  0  0  0  0  0  0  0  0  0  0
   -7.2290  -44.1680   32.4260 C   0  0  0  0  0  0  0  0  0  0  0  0
   -7.1720  -45.4200   31.8160 C   0  0  0  0  0  0  0  0  0  0  0  0
   -8.3480  -46.0650   31.4290 C   0  0  0  0  0  0  0  0  0  0  0  0
  -13.0230  -45.6020   30.3130 C   0  0  0  0  0  0  0  0  0  0  0  0
  -13.7750  -44.9040   29.1760 C   0  0  0  0  0  0  0  0  0  0  0  0
  -18.3000  -42.2440   26.6980 C   0  0  0  0  0  0  0  0  0  0  0  0
  -19.4240  -41.8720   25.9480 C   0  0  0  0  0  0  0  0  0  0  0  0
  -19.3240  -41.9270   24.5540 C   0  0  0  0  0  0  0  0  0  0  0  0
  -20.2500  -41.6280   23.5830 N   0  0  0  0  0  0  0  0  0  0  0  0
  1  2  3  0
  2  3  1  0
  3  4  1  0
  4  5  1  0
  5  6  1  0
  6  7  2  0
  7  8  1  0
  8  9  2  0
  9 10  1  0
 10 11  1  0
 11 12  1  0
 12 13  1  0
 13 14  1  0
 14 15  1  0
 15 16  1  0
 16 17  1  0
 17 18  1  0
 18 19  1  0
 19 20  1  0
 20 21  2  0
 21 22  1  0
 22 23  2  0
 23 24  1  0
 24 25  2  0
 18 26  1  0
 26 27  1  0
 10 28  2  0
 28 29  1  0
 29 30  2  0
 30 31  1  0
 31  6  1  0
 30  8  1  0
 27 15  1  0
 25 20  1  0
M  END
$$$$
