PVAHNJQQAFBHBW-UHFFFAOYSA-N_4EY7_m5
     RDKit          3D

 31 34  0  0  0  0  0  0  0  0999 V2000
  -23.4360  -38.5480   19.7670 C   0  0  0  0  0  0  0  0  0  0  0  0
  -22.2800  -38.4440   19.4600 C   0  0  0  0  0  0  0  0  0  0  0  0
  -20.8670  -38.3130   19.0780 C   0  0  0  0  0  0  0  0  0  0  0  0
  -20.0610  -39.4430   19.5340 N   0  0  0  0  0  0  0  0  0  0  0  0
  -20.6560  -40.2150   20.6200 C   0  0  0  0  0  0  0  0  0  0  0  0
  -19.6240  -40.7720   21.5380 C   0  0  0  0  0  0  0  0  0  0  0  0
  -19.7440  -41.4770   22.7200 C   0  0  0  0  0  0  0  0  0  0  0  0
  -18.4340  -41.7710   23.1910 C   0  0  0  0  0  0  0  0  0  0  0  0
  -17.9260  -42.4520   24.3140 C   0  0  0  0  0  0  0  0  0  0  0  0
  -16.5410  -42.5690   24.4930 C   0  0  0  0  0  0  0  0  0  0  0  0
  -16.1760  -43.2520   25.6220 O   0  0  0  0  0  0  0  0  0  0  0  0
  -15.3000  -42.5880   26.5310 C   0  0  0  0  0  0  0  0  0  0  0  0
  -13.9450  -43.3000   26.5290 C   0  0  0  0  0  0  0  0  0  0  0  0
  -14.0960  -44.8230   26.6280 C   0  0  0  0  0  0  0  0  0  0  0  0
  -13.3110  -45.5010   27.7670 C   0  0  0  0  0  0  0  0  0  0  0  0
  -11.7950  -45.3040   27.6590 C   0  0  0  0  0  0  0  0  0  0  0  0
  -11.0640  -46.0150   28.8020 C   0  0  0  0  0  0  0  0  0  0  0  0
  -11.5450  -45.5490   30.1140 N   0  0  0  0  0  0  0  0  0  0  0  0
  -10.8190  -46.2060   31.2170 C   0  0  0  0  0  0  0  0  0  0  0  0
   -9.5540  -45.4800   31.6280 C   0  0  0  0  0  0  0  0  0  0  0  0
   -8.2950  -46.0590   31.4070 C   0  0  0  0  0  0  0  0  0  0  0  0
   -7.1280  -45.3850   31.7670 C   0  0  0  0  0  0  0  0  0  0  0  0
   -7.2060  -44.1210   32.3490 C   0  0  0  0  0  0  0  0  0  0  0  0
   -8.4500  -43.5310   32.5700 C   0  0  0  0  0  0  0  0  0  0  0  0
   -9.6190  -44.2060   32.2110 C   0  0  0  0  0  0  0  0  0  0  0  0
  -12.9900  -45.7870   30.2550 C   0  0  0  0  0  0  0  0  0  0  0  0
  -13.7820  -45.0670   29.1600 C   0  0  0  0  0  0  0  0  0  0  0  0
  -15.6690  -42.0160   23.5540 C   0  0  0  0  0  0  0  0  0  0  0  0
  -16.1510  -41.3330   22.4290 C   0  0  0  0  0  0  0  0  0  0  0  0
  -17.5370  -41.2270   22.2760 C   0  0  0  0  0  0  0  0  0  0  0  0
  -18.2800  -40.6210   21.2890 N   0  0  0  0  0  0  0  0  0  0  0  0
  1  2  3  0
  2  3  1  0
  3  4  1  0
  4  5  1  0
  5  6  1  0
  6  7  2  0
  7  8  1  0
  8  9  2  0
  9 10  1  0
 10 11  1  0
 11 12  1  0
 12 13  1  0
 13 14  1  0
 14 15  1  0
 15 16  1  0
 16 17  1  0
 17 18  1  0
 18 19  1  0
 19 20  1  0
 20 21  2  0
 21 22  1  0
 22 23  2  0
 23 24  1  0
 24 25  2  0
 18 26  1  0
 26 27  1  0
 10 28  2  0
 28 29  1  0
 29 30  2  0
 30 31  1  0
 31  6  1  0
 30  8  1  0
 27 15  1  0
 25 20  1  0
M  END
$$$$
