PVAHNJQQAFBHBW-UHFFFAOYSA-N_4BDS_m5
     RDKit          3D

 31 34  0  0  0  0  0  0  0  0999 V2000
  133.6610  118.9280   40.6310 C   0  0  0  0  0  0  0  0  0  0  0  0
  133.3180  118.0080   41.3220 C   0  0  0  0  0  0  0  0  0  0  0  0
  132.9010  116.8850   42.1730 C   0  0  0  0  0  0  0  0  0  0  0  0
  132.6010  115.6820   41.3990 N   0  0  0  0  0  0  0  0  0  0  0  0
  133.4790  114.5490   41.6710 C   0  0  0  0  0  0  0  0  0  0  0  0
  133.7850  113.7730   40.4370 C   0  0  0  0  0  0  0  0  0  0  0  0
  134.4080  112.5520   40.2620 C   0  0  0  0  0  0  0  0  0  0  0  0
  134.4400  112.2710   38.8680 C   0  0  0  0  0  0  0  0  0  0  0  0
  134.9300  111.2010   38.0950 C   0  0  0  0  0  0  0  0  0  0  0  0
  134.8040  111.2320   36.6990 C   0  0  0  0  0  0  0  0  0  0  0  0
  135.3190  110.1350   36.0640 O   0  0  0  0  0  0  0  0  0  0  0  0
  136.2760  109.3560   36.7810 C   0  0  0  0  0  0  0  0  0  0  0  0
  137.6160  109.4080   36.0440 C   0  0  0  0  0  0  0  0  0  0  0  0
  138.7390  109.9580   36.9320 C   0  0  0  0  0  0  0  0  0  0  0  0
  138.3200  111.0280   37.9570 C   0  0  0  0  0  0  0  0  0  0  0  0
  139.0000  110.8620   39.3210 C   0  0  0  0  0  0  0  0  0  0  0  0
  138.5320  111.9380   40.3060 C   0  0  0  0  0  0  0  0  0  0  0  0
  138.7800  113.2900   39.7750 N   0  0  0  0  0  0  0  0  0  0  0  0
  138.3630  114.3280   40.7360 C   0  0  0  0  0  0  0  0  0  0  0  0
  139.5210  115.0720   41.3670 C   0  0  0  0  0  0  0  0  0  0  0  0
  139.4910  116.4700   41.4870 C   0  0  0  0  0  0  0  0  0  0  0  0
  140.5480  117.1560   42.0860 C   0  0  0  0  0  0  0  0  0  0  0  0
  141.6460  116.4520   42.5760 C   0  0  0  0  0  0  0  0  0  0  0  0
  141.6880  115.0630   42.4680 C   0  0  0  0  0  0  0  0  0  0  0  0
  140.6310  114.3750   41.8680 C   0  0  0  0  0  0  0  0  0  0  0  0
  138.0840  113.4840   38.4940 C   0  0  0  0  0  0  0  0  0  0  0  0
  138.5390  112.4590   37.4510 C   0  0  0  0  0  0  0  0  0  0  0  0
  134.1870  112.3200   36.0810 C   0  0  0  0  0  0  0  0  0  0  0  0
  133.6930  113.3970   36.8290 C   0  0  0  0  0  0  0  0  0  0  0  0
  133.8350  113.3440   38.2190 C   0  0  0  0  0  0  0  0  0  0  0  0
  133.4530  114.2430   39.1880 N   0  0  0  0  0  0  0  0  0  0  0  0
  1  2  3  0
  2  3  1  0
  3  4  1  0
  4  5  1  0
  5  6  1  0
  6  7  2  0
  7  8  1  0
  8  9  2  0
  9 10  1  0
 10 11  1  0
 11 12  1  0
 12 13  1  0
 13 14  1  0
 14 15  1  0
 15 16  1  0
 16 17  1  0
 17 18  1  0
 18 19  1  0
 19 20  1  0
 20 21  2  0
 21 22  1  0
 22 23  2  0
 23 24  1  0
 24 25  2  0
 18 26  1  0
 26 27  1  0
 10 28  2  0
 28 29  1  0
 29 30  2  0
 30 31  1  0
 31  6  1  0
 30  8  1  0
 27 15  1  0
 25 20  1  0
M  END
$$$$
