PVKAOBUBUDQDRR-UHFFFAOYSA-N_4BDS_m2
     RDKit          3D

 24 26  0  0  0  0  0  0  0  0999 V2000
  141.7650  116.2290   42.7540 C   0  0  0  0  0  0  0  0  0  0  0  0
  141.0850  117.2870   42.1640 C   0  0  0  0  0  0  0  0  0  0  0  0
  139.9900  117.0230   41.3480 C   0  0  0  0  0  0  0  0  0  0  0  0
  139.5920  115.7490   41.1170 N   0  0  0  0  0  0  0  0  0  0  0  0
  138.4040  115.4890   40.2670 C   0  0  0  0  0  0  0  0  0  0  0  0
  137.1290  116.0070   40.9310 C   0  0  0  0  0  0  0  0  0  0  0  0
  136.4310  114.9690   41.8180 C   0  0  0  0  0  0  0  0  0  0  0  0
  136.4350  113.5860   41.1560 C   0  0  0  0  0  0  0  0  0  0  0  0
  135.8760  112.5010   42.0830 C   0  0  0  0  0  0  0  0  0  0  0  0
  134.7560  111.7060   41.4000 C   0  0  0  0  0  0  0  0  0  0  0  0
  134.3830  112.2990   40.0380 C   0  0  0  0  0  0  0  0  0  0  0  0
  132.9780  112.8960   40.0580 C   0  0  0  0  0  0  0  0  0  0  0  0
  133.0470  114.3150   40.4840 N   0  0  0  0  0  0  0  0  0  0  0  0
  132.6260  114.6640   41.7210 C   0  0  0  0  0  0  0  0  0  0  0  0
  132.6730  115.9870   42.1410 C   0  0  0  0  0  0  0  0  0  0  0  0
  133.1590  116.9710   41.2780 C   0  0  0  0  0  0  0  0  0  0  0  0
  133.2220  118.3190   41.6640 C   0  0  0  0  0  0  0  0  0  0  0  0
  133.7080  119.2850   40.7810 C   0  0  0  0  0  0  0  0  0  0  0  0
  134.1340  118.9180   39.5090 C   0  0  0  0  0  0  0  0  0  0  0  0
  134.0760  117.5810   39.1120 C   0  0  0  0  0  0  0  0  0  0  0  0
  133.5890  116.5980   39.9900 C   0  0  0  0  0  0  0  0  0  0  0  0
  133.5160  115.2510   39.6250 C   0  0  0  0  0  0  0  0  0  0  0  0
  140.2390  114.7100   41.6980 C   0  0  0  0  0  0  0  0  0  0  0  0
  141.3380  114.9300   42.5200 C   0  0  0  0  0  0  0  0  0  0  0  0
  1  2  2  0
  2  3  1  0
  3  4  2  0
  4  5  1  0
  5  6  1  0
  6  7  1  0
  7  8  1  0
  8  9  1  0
  9 10  1  0
 10 11  1  0
 11 12  1  0
 12 13  1  0
 13 14  2  0
 14 15  1  0
 15 16  2  0
 16 17  1  0
 17 18  2  0
 18 19  1  0
 19 20  2  0
 20 21  1  0
 21 22  2  0
  4 23  1  0
 23 24  2  0
 24  1  1  0
 22 13  1  0
 21 16  1  0
M  CHG  2   4   1  13   1
M  END
$$$$
