PVTZPAMEGKOLDH-UHFFFAOYSA-N_9V8H_m7
     RDKit          3D

 31 34  0  0  0  0  0  0  0  0999 V2000
  -13.2580   -4.1890  -26.3820 C   0  0  0  0  0  0  0  0  0  0  0  0
  -12.7540   -5.6150  -26.1960 C   0  0  0  0  0  0  0  0  0  0  0  0
  -12.2310   -6.2980  -27.4750 C   0  0  2  0  0  0  0  0  0  0  0  0
  -13.2480   -6.0890  -28.5790 C   0  0  0  0  0  0  0  0  0  0  0  0
  -13.1150   -5.4100  -29.5820 O   0  0  0  0  0  0  0  0  0  0  0  0
  -14.3920   -6.7690  -28.3620 O   0  0  0  0  0  0  0  0  0  0  0  0
  -11.8940   -7.8020  -27.3390 C   0  0  1  0  0  0  0  0  0  0  0  0
  -11.1370   -8.3520  -28.5810 C   0  0  0  0  0  0  0  0  0  0  0  0
   -9.6410   -8.1190  -28.3300 C   0  0  0  0  0  0  0  0  0  0  0  0
   -9.5870   -8.2570  -26.8420 C   0  0  0  0  0  0  0  0  0  0  0  0
   -8.4680   -8.4980  -26.0570 C   0  0  0  0  0  0  0  0  0  0  0  0
   -8.6350   -8.6090  -24.6750 C   0  0  0  0  0  0  0  0  0  0  0  0
   -7.6420   -8.8500  -23.7650 O   0  0  0  0  0  0  0  0  0  0  0  0
   -7.9820   -8.7270  -22.3810 C   0  0  0  0  0  0  0  0  0  0  0  0
   -7.5840   -7.3330  -21.9000 C   0  0  0  0  0  0  0  0  0  0  0  0
   -8.0840   -7.0380  -20.5310 C   0  0  0  0  0  0  0  0  0  0  0  0
   -9.3580   -7.4040  -20.1540 N   0  0  0  0  0  0  0  0  0  0  0  0
   -9.4600   -6.9940  -18.9030 C   0  0  0  0  0  0  0  0  0  0  0  0
  -10.5880   -7.1130  -17.9820 C   0  0  0  0  0  0  0  0  0  0  0  0
  -11.3780   -8.2710  -18.0010 C   0  0  0  0  0  0  0  0  0  0  0  0
  -12.4620   -8.4170  -17.1300 C   0  0  0  0  0  0  0  0  0  0  0  0
  -12.7710   -7.4090  -16.2120 C   0  0  0  0  0  0  0  0  0  0  0  0
  -13.9530   -7.5500  -15.2980 C   0  0  0  0  0  0  0  0  0  0  0  0
  -11.9980   -6.2430  -16.1980 C   0  0  0  0  0  0  0  0  0  0  0  0
  -10.9140   -6.1000  -17.0710 C   0  0  0  0  0  0  0  0  0  0  0  0
   -8.3320   -6.3760  -18.4270 O   0  0  0  0  0  0  0  0  0  0  0  0
   -7.4560   -6.4110  -19.4750 C   0  0  0  0  0  0  0  0  0  0  0  0
   -6.1340   -5.7990  -19.2640 C   0  0  0  0  0  0  0  0  0  0  0  0
   -9.9180   -8.4780  -24.1150 C   0  0  0  0  0  0  0  0  0  0  0  0
  -11.0360   -8.2220  -24.9120 C   0  0  0  0  0  0  0  0  0  0  0  0
  -10.8590   -8.0950  -26.2790 C   0  0  0  0  0  0  0  0  0  0  0  0
  1  2  1  0
  3  2  1  1
  3  4  1  0
  4  5  2  0
  4  6  1  0
  3  7  1  0
  7  8  1  6
  8  9  1  0
  9 10  1  0
 10 11  2  0
 11 12  1  0
 12 13  1  0
 13 14  1  0
 14 15  1  0
 15 16  1  0
 16 17  1  0
 17 18  2  0
 18 19  1  0
 19 20  2  0
 20 21  1  0
 21 22  2  0
 22 23  1  0
 22 24  1  0
 24 25  2  0
 18 26  1  0
 26 27  1  0
 27 28  1  0
 12 29  2  0
 29 30  1  0
 30 31  2  0
 31  7  1  0
 31 10  1  0
 27 16  2  0
 25 19  1  0
M  END
$$$$
