PVTZPAMEGKOLDH-UHFFFAOYSA-N_9V8H_m3
     RDKit          3D

 31 34  0  0  0  0  0  0  0  0999 V2000
   -2.8510   -6.6760  -19.6100 C   0  0  0  0  0  0  0  0  0  0  0  0
   -3.1020   -5.3160  -20.2500 C   0  0  0  0  0  0  0  0  0  0  0  0
   -4.5820   -4.9800  -20.5180 C   0  0  2  0  0  0  0  0  0  0  0  0
   -4.8070   -3.5170  -20.1960 C   0  0  0  0  0  0  0  0  0  0  0  0
   -4.6300   -2.9640  -19.1240 O   0  0  0  0  0  0  0  0  0  0  0  0
   -5.2410   -2.8150  -21.2620 O   0  0  0  0  0  0  0  0  0  0  0  0
   -5.6110   -5.8560  -19.7640 C   0  0  1  0  0  0  0  0  0  0  0  0
   -6.8380   -5.0350  -19.2740 C   0  0  0  0  0  0  0  0  0  0  0  0
   -7.8600   -5.0350  -20.4190 C   0  0  0  0  0  0  0  0  0  0  0  0
   -7.5870   -6.3720  -21.0320 C   0  0  0  0  0  0  0  0  0  0  0  0
   -8.4140   -7.0960  -21.8790 C   0  0  0  0  0  0  0  0  0  0  0  0
   -7.9760   -8.3420  -22.3320 C   0  0  0  0  0  0  0  0  0  0  0  0
   -8.6680   -9.1810  -23.1630 O   0  0  0  0  0  0  0  0  0  0  0  0
   -8.6690   -8.8620  -24.5580 C   0  0  0  0  0  0  0  0  0  0  0  0
  -10.0310   -8.2750  -24.9260 C   0  0  0  0  0  0  0  0  0  0  0  0
  -10.1190   -7.8970  -26.3610 C   0  0  0  0  0  0  0  0  0  0  0  0
   -9.2040   -8.3780  -27.2720 N   0  0  0  0  0  0  0  0  0  0  0  0
   -9.5780   -7.8480  -28.4230 C   0  0  0  0  0  0  0  0  0  0  0  0
   -8.9840   -8.0080  -29.7480 C   0  0  0  0  0  0  0  0  0  0  0  0
   -9.5450   -7.3370  -30.8440 C   0  0  0  0  0  0  0  0  0  0  0  0
   -8.9960   -7.4650  -32.1240 C   0  0  0  0  0  0  0  0  0  0  0  0
   -7.8670   -8.2620  -32.3310 C   0  0  0  0  0  0  0  0  0  0  0  0
   -7.2950   -8.4270  -33.7090 C   0  0  0  0  0  0  0  0  0  0  0  0
   -7.3110   -8.9480  -31.2460 C   0  0  0  0  0  0  0  0  0  0  0  0
   -7.8610   -8.8180  -29.9670 C   0  0  0  0  0  0  0  0  0  0  0  0
  -10.6850   -7.0450  -28.3310 O   0  0  0  0  0  0  0  0  0  0  0  0
  -11.0260   -7.0830  -27.0080 C   0  0  0  0  0  0  0  0  0  0  0  0
  -12.1940   -6.2900  -26.5930 C   0  0  0  0  0  0  0  0  0  0  0  0
   -6.7240   -8.8320  -21.9240 C   0  0  0  0  0  0  0  0  0  0  0  0
   -5.8920   -8.0890  -21.0820 C   0  0  0  0  0  0  0  0  0  0  0  0
   -6.3260   -6.8470  -20.6520 C   0  0  0  0  0  0  0  0  0  0  0  0
  1  2  1  0
  3  2  1  1
  3  4  1  0
  4  5  2  0
  4  6  1  0
  3  7  1  0
  7  8  1  6
  8  9  1  0
  9 10  1  0
 10 11  2  0
 11 12  1  0
 12 13  1  0
 13 14  1  0
 14 15  1  0
 15 16  1  0
 16 17  1  0
 17 18  2  0
 18 19  1  0
 19 20  2  0
 20 21  1  0
 21 22  2  0
 22 23  1  0
 22 24  1  0
 24 25  2  0
 18 26  1  0
 26 27  1  0
 27 28  1  0
 12 29  2  0
 29 30  1  0
 30 31  2  0
 31  7  1  0
 31 10  1  0
 27 16  2  0
 25 19  1  0
M  END
$$$$
