PVTZPAMEGKOLDH-UHFFFAOYSA-N_6LXA_m2
     RDKit          3D

 31 34  0  0  0  0  0  0  0  0999 V2000
   10.5690   10.3990  -10.2950 C   0  0  0  0  0  0  0  0  0  0  0  0
   10.0090    9.7880  -11.5740 C   0  0  0  0  0  0  0  0  0  0  0  0
   10.8610   10.0190  -12.8370 C   0  0  2  0  0  0  0  0  0  0  0  0
   10.1480   11.0250  -13.7180 C   0  0  0  0  0  0  0  0  0  0  0  0
    9.0180   10.9390  -14.1660 O   0  0  0  0  0  0  0  0  0  0  0  0
   10.9060   12.1080  -13.9820 O   0  0  0  0  0  0  0  0  0  0  0  0
   11.2050    8.7490  -13.6510 C   0  0  1  0  0  0  0  0  0  0  0  0
   12.7210    8.6550  -13.9870 C   0  0  0  0  0  0  0  0  0  0  0  0
   13.3940    7.9360  -12.8110 C   0  0  0  0  0  0  0  0  0  0  0  0
   12.2910    7.0230  -12.3790 C   0  0  0  0  0  0  0  0  0  0  0  0
   12.3980    5.8830  -11.5950 C   0  0  0  0  0  0  0  0  0  0  0  0
   11.2390    5.1560  -11.3160 C   0  0  0  0  0  0  0  0  0  0  0  0
   11.1720    4.0110  -10.5680 O   0  0  0  0  0  0  0  0  0  0  0  0
    9.9100    3.6930   -9.9750 C   0  0  0  0  0  0  0  0  0  0  0  0
   10.0350    3.8230   -8.4570 C   0  0  0  0  0  0  0  0  0  0  0  0
    9.2340    4.9540   -7.9150 C   0  0  0  0  0  0  0  0  0  0  0  0
    8.0660    4.7190   -7.2220 N   0  0  0  0  0  0  0  0  0  0  0  0
    7.6310    5.9230   -6.8980 C   0  0  0  0  0  0  0  0  0  0  0  0
    6.4350    6.3010   -6.1500 C   0  0  0  0  0  0  0  0  0  0  0  0
    6.0240    7.6410   -6.1300 C   0  0  0  0  0  0  0  0  0  0  0  0
    4.8800    8.0330   -5.4260 C   0  0  0  0  0  0  0  0  0  0  0  0
    4.1180    7.0870   -4.7350 C   0  0  0  0  0  0  0  0  0  0  0  0
    2.9080    7.5100   -3.9530 C   0  0  0  0  0  0  0  0  0  0  0  0
    4.5300    5.7500   -4.7360 C   0  0  0  0  0  0  0  0  0  0  0  0
    5.6740    5.3600   -5.4410 C   0  0  0  0  0  0  0  0  0  0  0  0
    8.4380    6.9420   -7.3350 O   0  0  0  0  0  0  0  0  0  0  0  0
    9.4620    6.3120   -7.9830 C   0  0  0  0  0  0  0  0  0  0  0  0
   10.5020    7.1650   -8.5820 C   0  0  0  0  0  0  0  0  0  0  0  0
   10.0040    5.5860  -11.8310 C   0  0  0  0  0  0  0  0  0  0  0  0
    9.9040    6.7430  -12.6080 C   0  0  0  0  0  0  0  0  0  0  0  0
   11.0550    7.4680  -12.8640 C   0  0  0  0  0  0  0  0  0  0  0  0
  1  2  1  0
  3  2  1  1
  3  4  1  0
  4  5  2  0
  4  6  1  0
  3  7  1  0
  7  8  1  1
  8  9  1  0
  9 10  1  0
 10 11  2  0
 11 12  1  0
 12 13  1  0
 13 14  1  0
 14 15  1  0
 15 16  1  0
 16 17  1  0
 17 18  2  0
 18 19  1  0
 19 20  2  0
 20 21  1  0
 21 22  2  0
 22 23  1  0
 22 24  1  0
 24 25  2  0
 18 26  1  0
 26 27  1  0
 27 28  1  0
 12 29  2  0
 29 30  1  0
 30 31  2  0
 31  7  1  0
 31 10  1  0
 27 16  2  0
 25 19  1  0
M  END
$$$$
