PVXQZMOKDYXWBJ-KKFHFHRHSA-N_6N7A_m8
     RDKit          3D

 30 34  0  0  0  0  0  0  0  0999 V2000
    6.0460  -21.7080   19.5130 O   0  0  0  0  0  0  0  0  0  0  0  0
    5.9310  -20.9470   20.4740 C   0  0  0  0  0  0  0  0  0  0  0  0
    4.9850  -19.9600   20.5160 N   0  0  0  0  0  0  0  0  0  0  0  0
    4.0430  -19.6180   19.4430 C   0  0  2  0  0  0  0  0  0  0  0  0
    4.5540  -18.4910   18.5180 C   0  0  0  0  0  0  0  0  0  0  0  0
    4.2760  -18.7230   17.1430 O   0  0  0  0  0  0  0  0  0  0  0  0
    2.6300  -19.3230   19.9850 C   0  0  0  0  0  0  0  0  0  0  0  0
    2.2900  -17.8490   19.9170 C   0  0  0  0  0  0  0  0  0  0  0  0
    2.7790  -16.9630   20.8890 C   0  0  0  0  0  0  0  0  0  0  0  0
    2.5010  -15.5990   20.8040 C   0  0  0  0  0  0  0  0  0  0  0  0
    1.7320  -15.1070   19.7510 C   0  0  0  0  0  0  0  0  0  0  0  0
    1.2350  -15.9790   18.7850 C   0  0  0  0  0  0  0  0  0  0  0  0
    1.5100  -17.3450   18.8690 C   0  0  0  0  0  0  0  0  0  0  0  0
    6.8400  -21.0800   21.7040 C   0  0  1  0  0  0  0  0  0  0  0  0
    6.0530  -21.3350   22.9900 C   0  0  0  0  0  0  0  0  0  0  0  0
    5.9530  -22.8090   23.3790 C   0  0  0  0  0  0  0  0  0  0  0  0
    6.1750  -23.6790   22.2220 N   0  0  0  0  0  0  0  0  0  0  0  0
    5.7150  -24.9980   22.3780 C   0  0  0  0  0  0  0  0  0  0  0  0
    6.4820  -25.8880   23.0680 N   0  0  0  0  0  0  0  0  0  0  0  0
    6.0550  -27.1550   23.2220 C   0  0  0  0  0  0  0  0  0  0  0  0
    4.9140  -27.7030   22.7770 N   0  0  0  0  0  0  0  0  0  0  0  0
    4.1680  -26.8010   22.1250 C   0  0  0  0  0  0  0  0  0  0  0  0
    2.9370  -27.0670   21.5890 N   0  0  0  0  0  0  0  0  0  0  0  0
    2.4240  -25.9280   21.0220 C   0  0  0  0  0  0  0  0  0  0  0  0
    3.3520  -24.9220   21.1940 C   0  0  0  0  0  0  0  0  0  0  0  0
    4.4750  -25.4670   21.8860 C   0  0  0  0  0  0  0  0  0  0  0  0
    7.4720  -23.5630   21.5510 C   0  0  0  0  0  0  0  0  0  0  0  0
    7.9410  -22.1160   21.5350 C   0  0  0  0  0  0  0  0  0  0  0  0
    9.1270  -21.7650   20.6560 C   0  0  0  0  0  0  0  0  0  0  0  0
    9.2990  -21.8050   22.1450 C   0  0  0  0  0  0  0  0  0  0  0  0
  1  2  2  0
  2  3  1  0
  3  4  1  0
  4  5  1  1
  5  6  1  0
  4  7  1  0
  7  8  1  0
  8  9  2  0
  9 10  1  0
 10 11  2  0
 11 12  1  0
 12 13  2  0
 14  2  1  6
 14 15  1  0
 15 16  1  0
 16 17  1  0
 17 18  1  0
 18 19  2  0
 19 20  1  0
 20 21  2  0
 21 22  1  0
 22 23  1  0
 23 24  1  0
 24 25  2  0
 25 26  1  0
 17 27  1  0
 27 28  1  0
 28 29  1  0
 29 30  1  0
 13  8  1  0
 28 14  1  0
 26 18  1  0
 30 28  1  0
 26 22  2  0
M  END
$$$$
