PXCWWCGIHVDNOF-UHFFFAOYSA-N_6LXA_m6
     RDKit          3D

 31 33  0  0  0  0  0  0  0  0999 V2000
   10.5140    6.5110  -13.8340 C   0  0  0  0  0  0  0  0  0  0  0  0
   10.4870    7.1130  -12.4590 C   0  0  0  0  0  0  0  0  0  0  0  0
   10.7230    6.2740  -11.3590 C   0  0  0  0  0  0  0  0  0  0  0  0
   10.7520    6.7790  -10.0540 C   0  0  0  0  0  0  0  0  0  0  0  0
   11.0190    5.8590   -8.8890 C   0  0  0  0  0  0  0  0  0  0  0  0
    9.8010    5.4280   -8.2340 N   0  0  0  0  0  0  0  0  0  0  0  0
    9.4940    4.0480   -7.9660 C   0  0  0  0  0  0  0  0  0  0  0  0
    8.1210    4.1000   -7.3190 C   0  0  0  0  0  0  0  0  0  0  0  0
    7.8850    5.5000   -7.0320 N   0  0  0  0  0  0  0  0  0  0  0  0
    6.7580    5.9550   -6.2970 C   0  0  0  0  0  0  0  0  0  0  0  0
    6.2540    7.2510   -6.4380 C   0  0  0  0  0  0  0  0  0  0  0  0
    5.1450    7.6880   -5.6990 C   0  0  0  0  0  0  0  0  0  0  0  0
    4.5060    6.8410   -4.7900 C   0  0  0  0  0  0  0  0  0  0  0  0
    3.3040    7.2910   -3.9800 C   0  0  0  0  0  0  0  0  0  0  0  0
    3.6510    8.4830   -3.0850 C   0  0  0  0  0  0  0  0  0  0  0  0
    2.7120    6.1440   -3.1570 C   0  0  0  0  0  0  0  0  0  0  0  0
    5.0010    5.5420   -4.6460 C   0  0  0  0  0  0  0  0  0  0  0  0
    6.1080    5.1070   -5.3870 C   0  0  0  0  0  0  0  0  0  0  0  0
    8.8880    6.2940   -7.6310 C   0  0  0  0  0  0  0  0  0  0  0  0
    8.9950    7.5090   -7.6470 O   0  0  0  0  0  0  0  0  0  0  0  0
   10.5580    8.1520   -9.8570 C   0  0  0  0  0  0  0  0  0  0  0  0
   10.3160    9.0130  -10.9400 C   0  0  0  0  0  0  0  0  0  0  0  0
   10.1350   10.4770  -10.6660 C   0  0  0  0  0  0  0  0  0  0  0  0
   10.2130    8.4710  -12.2320 C   0  0  0  0  0  0  0  0  0  0  0  0
    9.9420    9.3050  -13.2860 O   0  0  0  0  0  0  0  0  0  0  0  0
   11.0850    9.9210  -13.9030 C   0  0  0  0  0  0  0  0  0  0  0  0
   10.8170   11.4380  -13.8830 C   0  0  0  0  0  0  0  0  0  0  0  0
   11.0820    9.5050  -15.3880 C   0  0  0  0  0  0  0  0  0  0  0  0
   12.5070    9.6820  -13.3300 C   0  0  0  0  0  0  0  0  0  0  0  0
   13.2310    8.7230  -13.5500 O   0  0  0  0  0  0  0  0  0  0  0  0
   12.9450   10.6670  -12.5160 O   0  0  0  0  0  0  0  0  0  0  0  0
  1  2  1  0
  2  3  2  0
  3  4  1  0
  4  5  1  0
  5  6  1  0
  6  7  1  0
  7  8  1  0
  8  9  1  0
  9 10  1  0
 10 11  2  0
 11 12  1  0
 12 13  2  0
 13 14  1  0
 14 15  1  0
 14 16  1  0
 13 17  1  0
 17 18  2  0
  9 19  1  0
 19 20  2  0
  4 21  2  0
 21 22  1  0
 22 23  1  0
 22 24  2  0
 24 25  1  0
 25 26  1  0
 26 27  1  0
 26 28  1  0
 26 29  1  0
 29 30  2  0
 29 31  1  0
 24  2  1  0
 19  6  1  0
 18 10  1  0
M  END
$$$$
