PZRQOAPHEGZBPU-NTEUORMPSA-N_6LXA_m6
     RDKit          3D

 43 46  0  0  0  0  0  0  0  0999 V2000
    2.9800    4.6450   -2.4520 C   0  0  0  0  0  0  0  0  0  0  0  0
    3.8570    5.6330   -1.7070 C   0  0  0  0  0  0  0  0  0  0  0  0
    3.3870    6.9710   -1.9250 O   0  0  0  0  0  0  0  0  0  0  0  0
    4.3550    7.9280   -2.0620 C   0  0  0  0  0  0  0  0  0  0  0  0
    4.8290    8.5750   -1.1380 O   0  0  0  0  0  0  0  0  0  0  0  0
    4.7180    8.0890   -3.5470 C   0  0  2  0  0  0  0  0  0  0  0  0
    4.8360    9.5910   -3.8560 C   0  0  0  0  0  0  0  0  0  0  0  0
    6.2710   10.0120   -4.0830 C   0  0  0  0  0  0  0  0  0  0  0  0
    7.1180   10.2580   -2.9980 C   0  0  0  0  0  0  0  0  0  0  0  0
    8.4360   10.6640   -3.2110 C   0  0  0  0  0  0  0  0  0  0  0  0
    8.9300   10.8410   -4.5060 C   0  0  0  0  0  0  0  0  0  0  0  0
   10.2360   11.2370   -4.5590 O   0  0  0  0  0  0  0  0  0  0  0  0
   10.5820   12.5300   -4.0660 C   0  0  0  0  0  0  0  0  0  0  0  0
   11.4720   13.2750   -5.0630 C   0  0  0  0  0  0  0  0  0  0  0  0
   10.8400   13.4180   -6.3600 N   0  0  0  0  0  0  0  0  0  0  0  0
   10.2510   14.6160   -6.7410 C   0  0  0  0  0  0  0  0  0  0  0  0
   10.1790   15.6400   -6.0780 O   0  0  0  0  0  0  0  0  0  0  0  0
    9.6140   14.4750   -8.3860 S   0  0  0  0  0  0  0  0  0  0  0  0
   10.2030   12.8100   -8.5230 C   0  0  0  0  0  0  0  0  0  0  0  0
   10.1000   11.9640   -9.6160 C   0  0  0  0  0  0  0  0  0  0  0  0
   10.6370   10.6740   -9.5160 C   0  0  0  0  0  0  0  0  0  0  0  0
   10.5270    9.7770  -10.6970 C   0  0  0  0  0  0  0  0  0  0  0  0
   10.6310   10.2370  -11.8290 O   0  0  0  0  0  0  0  0  0  0  0  0
   10.2480    8.3370  -10.4480 C   0  0  0  0  0  0  0  0  0  0  0  0
   10.2010    7.8770   -9.1890 C   0  0  0  0  0  0  0  0  0  0  0  0
    9.9680    6.4670   -8.8390 C   0  0  0  0  0  0  0  0  0  0  0  0
   10.2530    5.4790   -9.7940 C   0  0  0  0  0  0  0  0  0  0  0  0
   10.0520    4.1290   -9.4990 C   0  0  0  0  0  0  0  0  0  0  0  0
   10.2790    3.0780  -10.3470 O   0  0  0  0  0  0  0  0  0  0  0  0
   11.2020    3.2920  -11.4080 C   0  0  0  0  0  0  0  0  0  0  0  0
    9.5720    3.7590   -8.2390 C   0  0  0  0  0  0  0  0  0  0  0  0
    9.3030    4.7260   -7.2710 C   0  0  0  0  0  0  0  0  0  0  0  0
    8.8390    4.4930   -6.0040 O   0  0  0  0  0  0  0  0  0  0  0  0
    9.7310    3.8470   -5.1040 C   0  0  0  0  0  0  0  0  0  0  0  0
    9.5110    6.0730   -7.5750 C   0  0  0  0  0  0  0  0  0  0  0  0
   11.2900   10.2700   -8.3340 C   0  0  0  0  0  0  0  0  0  0  0  0
   11.3910   11.1400   -7.2410 C   0  0  0  0  0  0  0  0  0  0  0  0
   10.8370   12.4100   -7.3450 C   0  0  0  0  0  0  0  0  0  0  0  0
    8.0870   10.6030   -5.5920 C   0  0  0  0  0  0  0  0  0  0  0  0
    6.7670   10.1920   -5.3800 C   0  0  0  0  0  0  0  0  0  0  0  0
    3.7330    7.5350   -4.4290 O   0  0  0  0  0  0  0  0  0  0  0  0
    3.0030    8.5370   -5.1380 C   0  0  0  0  0  0  0  0  0  0  0  0
    2.6420    7.9880   -6.5040 C   0  0  0  0  0  0  0  0  0  0  0  0
  1  2  1  0
  2  3  1  0
  3  4  1  0
  4  5  2  0
  4  6  1  0
  6  7  1  6
  7  8  1  0
  8  9  2  0
  9 10  1  0
 10 11  2  0
 11 12  1  0
 12 13  1  0
 13 14  1  0
 14 15  1  0
 15 16  1  0
 16 17  2  0
 16 18  1  0
 18 19  1  0
 19 20  2  0
 20 21  1  0
 21 22  1  0
 22 23  2  0
 22 24  1  0
 24 25  2  0
 25 26  1  0
 26 27  2  0
 27 28  1  0
 28 29  1  0
 29 30  1  0
 28 31  2  0
 31 32  1  0
 32 33  1  0
 33 34  1  0
 32 35  2  0
 21 36  2  0
 36 37  1  0
 37 38  2  0
 11 39  1  0
 39 40  2  0
  6 41  1  0
 41 42  1  0
 42 43  1  0
 40  8  1  0
 38 15  1  0
 38 19  1  0
 35 26  1  0
M  END
$$$$
