PZRQOAPHEGZBPU-NTEUORMPSA-N_9V8H_m7
     RDKit          3D

 43 46  0  0  0  0  0  0  0  0999 V2000
   -3.9200   -2.1560  -22.5000 C   0  0  0  0  0  0  0  0  0  0  0  0
   -4.1070   -2.6400  -21.0760 C   0  0  0  0  0  0  0  0  0  0  0  0
   -5.1580   -3.6150  -21.0200 O   0  0  0  0  0  0  0  0  0  0  0  0
   -5.3180   -4.2500  -19.8190 C   0  0  0  0  0  0  0  0  0  0  0  0
   -5.4320   -3.6810  -18.7410 O   0  0  0  0  0  0  0  0  0  0  0  0
   -5.2930   -5.7720  -20.0290 C   0  0  2  0  0  0  0  0  0  0  0  0
   -6.7310   -6.3020  -19.9080 C   0  0  0  0  0  0  0  0  0  0  0  0
   -7.1350   -7.1250  -21.1120 C   0  0  0  0  0  0  0  0  0  0  0  0
   -8.0880   -6.6420  -22.0130 C   0  0  0  0  0  0  0  0  0  0  0  0
   -8.4710   -7.4120  -23.1130 C   0  0  0  0  0  0  0  0  0  0  0  0
   -7.9210   -8.6780  -23.3270 C   0  0  0  0  0  0  0  0  0  0  0  0
   -8.3890   -9.3110  -24.4420 O   0  0  0  0  0  0  0  0  0  0  0  0
   -8.0700   -8.7710  -25.7230 C   0  0  0  0  0  0  0  0  0  0  0  0
   -8.7890   -9.5380  -26.8360 C   0  0  0  0  0  0  0  0  0  0  0  0
   -9.6550   -8.6790  -27.6210 N   0  0  0  0  0  0  0  0  0  0  0  0
  -10.9110   -8.3120  -27.1560 C   0  0  0  0  0  0  0  0  0  0  0  0
  -11.4280   -8.6480  -26.1010 O   0  0  0  0  0  0  0  0  0  0  0  0
  -11.6880   -7.2300  -28.3210 S   0  0  0  0  0  0  0  0  0  0  0  0
  -10.2710   -7.2740  -29.3810 C   0  0  0  0  0  0  0  0  0  0  0  0
  -10.0910   -6.6030  -30.5810 C   0  0  0  0  0  0  0  0  0  0  0  0
   -8.8840   -6.7770  -31.2710 C   0  0  0  0  0  0  0  0  0  0  0  0
   -8.6990   -6.0480  -32.5530 C   0  0  0  0  0  0  0  0  0  0  0  0
   -7.9930   -6.5250  -33.4350 O   0  0  0  0  0  0  0  0  0  0  0  0
   -9.3590   -4.7220  -32.6960 C   0  0  0  0  0  0  0  0  0  0  0  0
   -8.7900   -3.6340  -32.1540 C   0  0  0  0  0  0  0  0  0  0  0  0
   -9.3790   -2.2870  -32.2100 C   0  0  0  0  0  0  0  0  0  0  0  0
  -10.6700   -2.0940  -31.6950 C   0  0  0  0  0  0  0  0  0  0  0  0
  -11.2620   -0.8290  -31.7220 C   0  0  0  0  0  0  0  0  0  0  0  0
  -12.5150   -0.5180  -31.2650 O   0  0  0  0  0  0  0  0  0  0  0  0
  -13.1860   -1.5080  -30.4940 C   0  0  0  0  0  0  0  0  0  0  0  0
  -10.5580    0.2540  -32.2580 C   0  0  0  0  0  0  0  0  0  0  0  0
   -9.2660    0.0840  -32.7540 C   0  0  0  0  0  0  0  0  0  0  0  0
   -8.4750    1.0610  -33.2940 O   0  0  0  0  0  0  0  0  0  0  0  0
   -8.8480    2.4080  -33.0300 C   0  0  0  0  0  0  0  0  0  0  0  0
   -8.6820   -1.1840  -32.7190 C   0  0  0  0  0  0  0  0  0  0  0  0
   -7.8720   -7.5950  -30.7280 C   0  0  0  0  0  0  0  0  0  0  0  0
   -8.0680   -8.2610  -29.5120 C   0  0  0  0  0  0  0  0  0  0  0  0
   -9.2770   -8.0970  -28.8470 C   0  0  0  0  0  0  0  0  0  0  0  0
   -6.9750   -9.1680  -22.4260 C   0  0  0  0  0  0  0  0  0  0  0  0
   -6.5860   -8.3950  -21.3260 C   0  0  0  0  0  0  0  0  0  0  0  0
   -4.4890   -6.4580  -19.0600 O   0  0  0  0  0  0  0  0  0  0  0  0
   -3.2830   -6.9820  -19.6170 C   0  0  0  0  0  0  0  0  0  0  0  0
   -2.3450   -5.8250  -19.8990 C   0  0  0  0  0  0  0  0  0  0  0  0
  1  2  1  0
  2  3  1  0
  3  4  1  0
  4  5  2  0
  4  6  1  0
  6  7  1  1
  7  8  1  0
  8  9  2  0
  9 10  1  0
 10 11  2  0
 11 12  1  0
 12 13  1  0
 13 14  1  0
 14 15  1  0
 15 16  1  0
 16 17  2  0
 16 18  1  0
 18 19  1  0
 19 20  2  0
 20 21  1  0
 21 22  1  0
 22 23  2  0
 22 24  1  0
 24 25  2  0
 25 26  1  0
 26 27  2  0
 27 28  1  0
 28 29  1  0
 29 30  1  0
 28 31  2  0
 31 32  1  0
 32 33  1  0
 33 34  1  0
 32 35  2  0
 21 36  2  0
 36 37  1  0
 37 38  2  0
 11 39  1  0
 39 40  2  0
  6 41  1  0
 41 42  1  0
 42 43  1  0
 40  8  1  0
 38 15  1  0
 38 19  1  0
 35 26  1  0
M  END
$$$$
