QDGDKZPMYPEBOC-RMKNXTFCSA-N_3POZ_m2
     RDKit          3D

 43 47  0  0  0  0  0  0  0  0999 V2000
   21.8490   36.8010   18.4990 C   0  0  0  0  0  0  0  0  0  0  0  0
   21.8330   35.3460   18.9330 C   0  0  0  0  0  0  0  0  0  0  0  0
   21.6470   34.4870   17.8060 O   0  0  0  0  0  0  0  0  0  0  0  0
   20.4200   34.4660   17.1860 C   0  0  0  0  0  0  0  0  0  0  0  0
   19.2050   34.1860   17.8150 C   0  0  0  0  0  0  0  0  0  0  0  0
   17.9990   34.2110   17.1250 C   0  0  0  0  0  0  0  0  0  0  0  0
   16.8770   33.9600   17.8140 N   0  0  0  0  0  0  0  0  0  0  0  0
   15.6960   34.0200   17.1570 C   0  0  0  0  0  0  0  0  0  0  0  0
   15.5680   34.3300   15.8150 C   0  0  0  0  0  0  0  0  0  0  0  0
   14.2590   34.3650   15.2410 C   0  0  0  0  0  0  0  0  0  0  0  0
   13.1710   34.3950   14.8410 N   0  0  0  0  0  0  0  0  0  0  0  0
   16.7370   34.5770   15.0820 C   0  0  0  0  0  0  0  0  0  0  0  0
   16.6840   34.9200   13.7090 N   0  0  0  0  0  0  0  0  0  0  0  0
   16.9520   34.1050   12.5910 C   0  0  0  0  0  0  0  0  0  0  0  0
   16.1130   34.0560   11.4730 C   0  0  0  0  0  0  0  0  0  0  0  0
   16.4090   33.2340   10.3770 C   0  0  0  0  0  0  0  0  0  0  0  0
   17.5510   32.4310   10.3800 C   0  0  0  0  0  0  0  0  0  0  0  0
   17.9340   31.6160    9.3460 O   0  0  0  0  0  0  0  0  0  0  0  0
   17.4450   31.9310    8.0470 C   0  0  0  0  0  0  0  0  0  0  0  0
   16.4970   30.8420    7.6110 C   0  0  0  0  0  0  0  0  0  0  0  0
   15.1280   30.9360    7.8990 C   0  0  0  0  0  0  0  0  0  0  0  0
   14.2460   29.9340    7.4870 C   0  0  0  0  0  0  0  0  0  0  0  0
   14.7260   28.8250    6.7930 C   0  0  0  0  0  0  0  0  0  0  0  0
   16.0880   28.7110    6.5180 C   0  0  0  0  0  0  0  0  0  0  0  0
   16.9700   29.7120    6.9300 C   0  0  0  0  0  0  0  0  0  0  0  0
   18.3720   32.4460   11.5160 C   0  0  0  0  0  0  0  0  0  0  0  0
   19.7920   31.4590   11.6150 Cl  0  0  0  0  0  0  0  0  0  0  0  0
   18.0730   33.2700   12.6090 C   0  0  0  0  0  0  0  0  0  0  0  0
   17.9940   34.5150   15.7480 C   0  0  0  0  0  0  0  0  0  0  0  0
   19.2300   34.7690   15.1080 C   0  0  0  0  0  0  0  0  0  0  0  0
   20.4350   34.7360   15.8090 C   0  0  0  0  0  0  0  0  0  0  0  0
   21.6880   34.9890   15.2080 N   0  0  0  0  0  0  0  0  0  0  0  0
   22.1290   36.1630   14.6460 C   0  0  0  0  0  0  0  0  0  0  0  0
   21.4850   37.1900   14.4700 O   0  0  0  0  0  0  0  0  0  0  0  0
   23.5230   36.0930   14.1380 C   0  0  0  0  0  0  0  0  0  0  0  0
   24.1610   34.9380   13.8970 C   0  0  0  0  0  0  0  0  0  0  0  0
   25.5860   34.8580   13.4300 C   0  0  0  0  0  0  0  0  0  0  0  0
   25.8530   33.6310   12.6730 N   0  0  0  0  0  0  0  0  0  0  0  0
   27.2170   33.1050   12.8930 C   0  0  0  0  0  0  0  0  0  0  0  0
   27.4330   31.7890   12.1240 C   0  0  0  0  0  0  0  0  0  0  0  0
   26.4800   30.7960   12.5210 O   0  0  0  0  0  0  0  0  0  0  0  0
   25.1500   31.2730   12.2740 C   0  0  0  0  0  0  0  0  0  0  0  0
   24.8770   32.5800   13.0360 C   0  0  0  0  0  0  0  0  0  0  0  0
  1  2  1  0
  2  3  1  0
  3  4  1  0
  4  5  2  0
  5  6  1  0
  6  7  2  0
  7  8  1  0
  8  9  2  0
  9 10  1  0
 10 11  3  0
  9 12  1  0
 12 13  1  0
 13 14  1  0
 14 15  2  0
 15 16  1  0
 16 17  2  0
 17 18  1  0
 18 19  1  0
 19 20  1  0
 20 21  2  0
 21 22  1  0
 22 23  2  0
 23 24  1  0
 24 25  2  0
 17 26  1  0
 26 27  1  0
 26 28  2  0
 12 29  2  0
 29 30  1  0
 30 31  2  0
 31 32  1  0
 32 33  1  0
 33 34  2  0
 33 35  1  0
 35 36  2  0
 36 37  1  0
 37 38  1  0
 38 39  1  0
 39 40  1  0
 40 41  1  0
 41 42  1  0
 42 43  1  0
 31  4  1  0
 43 38  1  0
 29  6  1  0
 28 14  1  0
 25 20  1  0
M  END
$$$$
