QDGDKZPMYPEBOC-RMKNXTFCSA-N_3POZ_m7
     RDKit          3D

 43 47  0  0  0  0  0  0  0  0999 V2000
   23.6110   35.8580   17.7300 C   0  0  0  0  0  0  0  0  0  0  0  0
   22.2260   35.3440   18.0790 C   0  0  0  0  0  0  0  0  0  0  0  0
   21.8350   34.3040   17.1790 O   0  0  0  0  0  0  0  0  0  0  0  0
   20.5620   34.3240   16.6600 C   0  0  0  0  0  0  0  0  0  0  0  0
   19.4000   34.0010   17.3640 C   0  0  0  0  0  0  0  0  0  0  0  0
   18.1430   34.0710   16.7760 C   0  0  0  0  0  0  0  0  0  0  0  0
   17.0780   33.7740   17.5340 N   0  0  0  0  0  0  0  0  0  0  0  0
   15.8490   33.8770   16.9790 C   0  0  0  0  0  0  0  0  0  0  0  0
   15.6160   34.2760   15.6760 C   0  0  0  0  0  0  0  0  0  0  0  0
   14.2650   34.3490   15.2130 C   0  0  0  0  0  0  0  0  0  0  0  0
   13.1490   34.4050   14.9040 N   0  0  0  0  0  0  0  0  0  0  0  0
   16.7230   34.5730   14.8700 C   0  0  0  0  0  0  0  0  0  0  0  0
   16.5620   35.0080   13.5320 N   0  0  0  0  0  0  0  0  0  0  0  0
   16.6170   34.2440   12.3490 C   0  0  0  0  0  0  0  0  0  0  0  0
   17.0760   32.9230   12.3220 C   0  0  0  0  0  0  0  0  0  0  0  0
   17.1170   32.1920   11.1280 C   0  0  0  0  0  0  0  0  0  0  0  0
   16.7090   32.7720    9.9260 C   0  0  0  0  0  0  0  0  0  0  0  0
   16.6910   32.1280    8.7150 O   0  0  0  0  0  0  0  0  0  0  0  0
   15.4410   31.6210    8.2610 C   0  0  0  0  0  0  0  0  0  0  0  0
   15.6930   30.3820    7.4380 C   0  0  0  0  0  0  0  0  0  0  0  0
   17.0040   29.9420    7.2030 C   0  0  0  0  0  0  0  0  0  0  0  0
   17.2390   28.7890    6.4510 C   0  0  0  0  0  0  0  0  0  0  0  0
   16.1690   28.0710    5.9190 C   0  0  0  0  0  0  0  0  0  0  0  0
   14.8630   28.5110    6.1310 C   0  0  0  0  0  0  0  0  0  0  0  0
   14.6260   29.6640    6.8820 C   0  0  0  0  0  0  0  0  0  0  0  0
   16.2880   34.1090    9.9410 C   0  0  0  0  0  0  0  0  0  0  0  0
   15.7920   34.9150    8.4900 Cl  0  0  0  0  0  0  0  0  0  0  0  0
   16.2470   34.8370   11.1380 C   0  0  0  0  0  0  0  0  0  0  0  0
   18.0290   34.4670   15.4270 C   0  0  0  0  0  0  0  0  0  0  0  0
   19.2110   34.7650   14.7090 C   0  0  0  0  0  0  0  0  0  0  0  0
   20.4680   34.6860   15.3070 C   0  0  0  0  0  0  0  0  0  0  0  0
   21.6700   34.9800   14.6260 N   0  0  0  0  0  0  0  0  0  0  0  0
   22.2010   34.3310   13.5380 C   0  0  0  0  0  0  0  0  0  0  0  0
   21.7840   33.3090   13.0070 O   0  0  0  0  0  0  0  0  0  0  0  0
   23.4680   34.9310   13.0460 C   0  0  0  0  0  0  0  0  0  0  0  0
   24.3140   35.6110   13.8340 C   0  0  0  0  0  0  0  0  0  0  0  0
   25.5720   36.2630   13.3340 C   0  0  0  0  0  0  0  0  0  0  0  0
   26.7670   35.7450   14.0050 N   0  0  0  0  0  0  0  0  0  0  0  0
   26.7320   35.9350   15.4710 C   0  0  0  0  0  0  0  0  0  0  0  0
   27.9800   35.3270   16.1380 C   0  0  0  0  0  0  0  0  0  0  0  0
   28.0880   33.9270   15.8520 O   0  0  0  0  0  0  0  0  0  0  0  0
   28.1680   33.7260   14.4330 C   0  0  0  0  0  0  0  0  0  0  0  0
   26.9330   34.3020   13.7200 C   0  0  0  0  0  0  0  0  0  0  0  0
  1  2  1  0
  2  3  1  0
  3  4  1  0
  4  5  2  0
  5  6  1  0
  6  7  2  0
  7  8  1  0
  8  9  2  0
  9 10  1  0
 10 11  3  0
  9 12  1  0
 12 13  1  0
 13 14  1  0
 14 15  2  0
 15 16  1  0
 16 17  2  0
 17 18  1  0
 18 19  1  0
 19 20  1  0
 20 21  2  0
 21 22  1  0
 22 23  2  0
 23 24  1  0
 24 25  2  0
 17 26  1  0
 26 27  1  0
 26 28  2  0
 12 29  2  0
 29 30  1  0
 30 31  2  0
 31 32  1  0
 32 33  1  0
 33 34  2  0
 33 35  1  0
 35 36  2  0
 36 37  1  0
 37 38  1  0
 38 39  1  0
 39 40  1  0
 40 41  1  0
 41 42  1  0
 42 43  1  0
 31  4  1  0
 43 38  1  0
 29  6  1  0
 28 14  1  0
 25 20  1  0
M  END
$$$$
