QDTHAXJGRDPCSZ-UHFFFAOYSA-N_6LXA_m2
     RDKit          3D

 34 36  0  0  0  0  0  0  0  0999 V2000
    6.9440   10.2250   -2.5880 C   0  0  0  0  0  0  0  0  0  0  0  0
    7.4160   10.2510   -3.9820 C   0  0  0  0  0  0  0  0  0  0  0  0
    8.6050   10.8800   -4.2220 O   0  0  0  0  0  0  0  0  0  0  0  0
    8.7860   10.7630   -5.5760 C   0  0  0  0  0  0  0  0  0  0  0  0
    9.9980   11.3570   -6.1340 C   0  0  0  0  0  0  0  0  0  0  0  0
   10.6370   10.7370   -7.2200 C   0  0  0  0  0  0  0  0  0  0  0  0
   11.8000   11.2800   -7.7720 C   0  0  0  0  0  0  0  0  0  0  0  0
   12.3390   12.4530   -7.2470 C   0  0  0  0  0  0  0  0  0  0  0  0
   11.7170   13.0820   -6.1710 C   0  0  0  0  0  0  0  0  0  0  0  0
   10.5550   12.5360   -5.6170 C   0  0  0  0  0  0  0  0  0  0  0  0
    7.8130   10.1180   -6.1940 N   0  0  0  0  0  0  0  0  0  0  0  0
    6.9330    9.7840   -5.1870 C   0  0  0  0  0  0  0  0  0  0  0  0
    5.6830    9.0350   -5.4850 C   0  0  0  0  0  0  0  0  0  0  0  0
    5.9560    7.6320   -6.0220 C   0  0  0  0  0  0  0  0  0  0  0  0
    4.7650    6.8480   -5.8930 O   0  0  0  0  0  0  0  0  0  0  0  0
    4.4230    6.4410   -4.6340 C   0  0  0  0  0  0  0  0  0  0  0  0
    3.0770    6.5950   -4.3180 C   0  0  0  0  0  0  0  0  0  0  0  0
    2.5970    6.2260   -3.0610 C   0  0  0  0  0  0  0  0  0  0  0  0
    3.4560    5.7080   -2.0750 C   0  0  0  0  0  0  0  0  0  0  0  0
    2.8710    5.3440   -0.7230 C   0  0  0  0  0  0  0  0  0  0  0  0
    1.9800    6.4240   -0.0980 C   0  0  0  0  0  0  0  0  0  0  0  0
    2.6660    7.7600   -0.0060 C   0  0  0  0  0  0  0  0  0  0  0  0
    2.2800    8.8290   -0.4500 O   0  0  0  0  0  0  0  0  0  0  0  0
    3.8580    7.6710    0.6200 O   0  0  0  0  0  0  0  0  0  0  0  0
    4.8190    5.5220   -2.4000 C   0  0  0  0  0  0  0  0  0  0  0  0
    5.8260    4.9290   -1.4410 C   0  0  0  0  0  0  0  0  0  0  0  0
    6.9810    4.4140   -2.1220 N   0  0  0  0  0  0  0  0  0  0  0  0
    8.2310    4.5120   -1.6060 C   0  0  0  0  0  0  0  0  0  0  0  0
    8.5060    4.9810   -0.5100 O   0  0  0  0  0  0  0  0  0  0  0  0
    9.1250    4.0190   -2.4960 O   0  0  0  0  0  0  0  0  0  0  0  0
    8.6370    3.0110   -3.3960 C   0  0  0  0  0  0  0  0  0  0  0  0
    9.3570    1.7130   -3.0500 C   0  0  0  0  0  0  0  0  0  0  0  0
    8.9330    3.4240   -4.8340 C   0  0  0  0  0  0  0  0  0  0  0  0
    5.2860    5.9110   -3.6760 C   0  0  0  0  0  0  0  0  0  0  0  0
  1  2  1  0
  2  3  1  0
  3  4  1  0
  4  5  1  0
  5  6  2  0
  6  7  1  0
  7  8  2  0
  8  9  1  0
  9 10  2  0
  4 11  2  0
 11 12  1  0
 12 13  1  0
 13 14  1  0
 14 15  1  0
 15 16  1  0
 16 17  2  0
 17 18  1  0
 18 19  2  0
 19 20  1  0
 20 21  1  0
 21 22  1  0
 22 23  2  0
 22 24  1  0
 19 25  1  0
 25 26  1  0
 26 27  1  0
 27 28  1  0
 28 29  2  0
 28 30  1  0
 30 31  1  0
 31 32  1  0
 31 33  1  0
 25 34  2  0
 12  2  2  0
 34 16  1  0
 10  5  1  0
M  END
$$$$
