QDTHAXJGRDPCSZ-UHFFFAOYSA-N_9V8H_m4
     RDKit          3D

 34 36  0  0  0  0  0  0  0  0999 V2000
   -3.5980   -6.9950  -19.6270 C   0  0  0  0  0  0  0  0  0  0  0  0
   -4.3310   -5.8110  -20.1030 C   0  0  0  0  0  0  0  0  0  0  0  0
   -3.5910   -4.6970  -20.3880 O   0  0  0  0  0  0  0  0  0  0  0  0
   -4.5150   -3.7670  -20.7880 C   0  0  0  0  0  0  0  0  0  0  0  0
   -4.0060   -2.4500  -21.1620 C   0  0  0  0  0  0  0  0  0  0  0  0
   -4.5690   -1.3010  -20.5850 C   0  0  0  0  0  0  0  0  0  0  0  0
   -4.1050   -0.0270  -20.9240 C   0  0  0  0  0  0  0  0  0  0  0  0
   -3.0680    0.1140  -21.8450 C   0  0  0  0  0  0  0  0  0  0  0  0
   -2.4960   -1.0160  -22.4240 C   0  0  0  0  0  0  0  0  0  0  0  0
   -2.9630   -2.2900  -22.0870 C   0  0  0  0  0  0  0  0  0  0  0  0
   -5.7600   -4.2070  -20.7750 N   0  0  0  0  0  0  0  0  0  0  0  0
   -5.6550   -5.5110  -20.3410 C   0  0  0  0  0  0  0  0  0  0  0  0
   -6.8660   -6.3630  -20.1890 C   0  0  0  0  0  0  0  0  0  0  0  0
   -7.7210   -6.3940  -21.4550 C   0  0  0  0  0  0  0  0  0  0  0  0
   -8.1900   -7.7300  -21.6620 O   0  0  0  0  0  0  0  0  0  0  0  0
   -8.2000   -8.1930  -22.9480 C   0  0  0  0  0  0  0  0  0  0  0  0
   -7.3060   -9.2270  -23.2020 C   0  0  0  0  0  0  0  0  0  0  0  0
   -7.2090   -9.7850  -24.4770 C   0  0  0  0  0  0  0  0  0  0  0  0
   -7.9940   -9.3090  -25.5420 C   0  0  0  0  0  0  0  0  0  0  0  0
   -7.8270   -9.9490  -26.9090 C   0  0  0  0  0  0  0  0  0  0  0  0
   -6.9350   -9.1650  -27.8780 C   0  0  0  0  0  0  0  0  0  0  0  0
   -7.6610   -8.7490  -29.1280 C   0  0  0  0  0  0  0  0  0  0  0  0
   -7.4680   -7.7530  -29.8070 O   0  0  0  0  0  0  0  0  0  0  0  0
   -8.6490   -9.6110  -29.4450 O   0  0  0  0  0  0  0  0  0  0  0  0
   -8.9260   -8.2780  -25.2840 C   0  0  0  0  0  0  0  0  0  0  0  0
   -9.8580   -7.7200  -26.3360 C   0  0  0  0  0  0  0  0  0  0  0  0
  -10.8070   -6.7970  -25.7800 N   0  0  0  0  0  0  0  0  0  0  0  0
  -12.1400   -6.8960  -26.0160 C   0  0  0  0  0  0  0  0  0  0  0  0
  -12.6760   -7.7880  -26.6590 O   0  0  0  0  0  0  0  0  0  0  0  0
  -12.7780   -5.8510  -25.4370 O   0  0  0  0  0  0  0  0  0  0  0  0
  -13.5520   -5.0140  -26.3130 C   0  0  0  0  0  0  0  0  0  0  0  0
  -12.5680   -4.2910  -27.2260 C   0  0  0  0  0  0  0  0  0  0  0  0
  -14.3540   -4.0160  -25.4860 C   0  0  0  0  0  0  0  0  0  0  0  0
   -9.0010   -7.7210  -23.9870 C   0  0  0  0  0  0  0  0  0  0  0  0
  1  2  1  0
  2  3  1  0
  3  4  1  0
  4  5  1  0
  5  6  2  0
  6  7  1  0
  7  8  2  0
  8  9  1  0
  9 10  2  0
  4 11  2  0
 11 12  1  0
 12 13  1  0
 13 14  1  0
 14 15  1  0
 15 16  1  0
 16 17  2  0
 17 18  1  0
 18 19  2  0
 19 20  1  0
 20 21  1  0
 21 22  1  0
 22 23  2  0
 22 24  1  0
 19 25  1  0
 25 26  1  0
 26 27  1  0
 27 28  1  0
 28 29  2  0
 28 30  1  0
 30 31  1  0
 31 32  1  0
 31 33  1  0
 25 34  2  0
 12  2  2  0
 34 16  1  0
 10  5  1  0
M  END
$$$$
