QFQGNTDOAIPHRN-QHCPKHFHSA-N_6LXA_m1
     RDKit          3D

 34 37  0  0  0  0  0  0  0  0999 V2000
    4.0850    4.3200   -1.4460 C   0  0  0  0  0  0  0  0  0  0  0  0
    4.1130    5.6840   -2.1070 C   0  0  0  0  0  0  0  0  0  0  0  0
    4.7150    6.6060   -1.2020 O   0  0  0  0  0  0  0  0  0  0  0  0
    4.0550    7.8720   -1.1690 C   0  0  1  0  0  0  0  0  0  0  0  0
    3.8950    8.3830   -2.6130 C   0  0  0  0  0  0  0  0  0  0  0  0
    5.1300    9.0320   -3.2010 C   0  0  0  0  0  0  0  0  0  0  0  0
    5.3230    9.0670   -4.5880 C   0  0  0  0  0  0  0  0  0  0  0  0
    6.4650    9.6630   -5.1260 C   0  0  0  0  0  0  0  0  0  0  0  0
    7.4300   10.2360   -4.2950 C   0  0  0  0  0  0  0  0  0  0  0  0
    8.4950   10.7870   -4.9520 O   0  0  0  0  0  0  0  0  0  0  0  0
    9.5620   11.3010   -4.1470 C   0  0  0  0  0  0  0  0  0  0  0  0
   10.4830   12.1400   -5.0290 C   0  0  0  0  0  0  0  0  0  0  0  0
   10.3110   11.8400   -6.4770 C   0  0  0  0  0  0  0  0  0  0  0  0
   10.4650   10.5580   -6.9550 N   0  0  0  0  0  0  0  0  0  0  0  0
   10.2500   10.6530   -8.2580 C   0  0  0  0  0  0  0  0  0  0  0  0
   10.3160    9.5280   -9.1510 C   0  0  0  0  0  0  0  0  0  0  0  0
   10.4460    9.5660  -10.5240 C   0  0  0  0  0  0  0  0  0  0  0  0
   10.4820    8.2640  -11.1040 C   0  0  0  0  0  0  0  0  0  0  0  0
   10.3710    7.2580  -10.1610 C   0  0  0  0  0  0  0  0  0  0  0  0
   10.3860    5.8040  -10.3670 C   0  0  0  0  0  0  0  0  0  0  0  0
   10.9200    5.2300  -11.5310 C   0  0  0  0  0  0  0  0  0  0  0  0
   10.9350    3.8430  -11.7020 C   0  0  0  0  0  0  0  0  0  0  0  0
   10.4180    3.0110  -10.7110 C   0  0  0  0  0  0  0  0  0  0  0  0
    9.8880    3.5650   -9.5480 C   0  0  0  0  0  0  0  0  0  0  0  0
    9.8730    4.9510   -9.3760 C   0  0  0  0  0  0  0  0  0  0  0  0
   10.2390    7.9160   -8.5810 S   0  0  0  0  0  0  0  0  0  0  0  0
    9.9600   11.9360   -8.6630 O   0  0  0  0  0  0  0  0  0  0  0  0
   10.0010   12.6830   -7.5210 C   0  0  0  0  0  0  0  0  0  0  0  0
    9.7390   14.1260   -7.6560 C   0  0  0  0  0  0  0  0  0  0  0  0
    7.2470   10.1990   -2.9140 C   0  0  0  0  0  0  0  0  0  0  0  0
    6.1040    9.6010   -2.3720 C   0  0  0  0  0  0  0  0  0  0  0  0
    2.6960    7.9480   -0.4570 C   0  0  0  0  0  0  0  0  0  0  0  0
    1.9840    6.9920   -0.1860 O   0  0  0  0  0  0  0  0  0  0  0  0
    2.3050    9.1960   -0.1280 O   0  0  0  0  0  0  0  0  0  0  0  0
  1  2  1  0
  2  3  1  0
  3  4  1  0
  4  5  1  6
  5  6  1  0
  6  7  2  0
  7  8  1  0
  8  9  2  0
  9 10  1  0
 10 11  1  0
 11 12  1  0
 12 13  1  0
 13 14  1  0
 14 15  2  0
 15 16  1  0
 16 17  2  0
 17 18  1  0
 18 19  2  0
 19 20  1  0
 20 21  2  0
 21 22  1  0
 22 23  2  0
 23 24  1  0
 24 25  2  0
 19 26  1  0
 15 27  1  0
 27 28  1  0
 28 29  1  0
  9 30  1  0
 30 31  2  0
  4 32  1  0
 32 33  2  0
 32 34  1  0
 31  6  1  0
 28 13  2  0
 26 16  1  0
 25 20  1  0
M  END
$$$$
