QGFDDMPEQGUIST-INIZCTEOSA-N_4UDW_m6
     RDKit          3D

 32 35  0  0  0  0  0  0  0  0999 V2000
  130.5930  -16.5550  163.5100 C   0  0  0  0  0  0  0  0  0  0  0  0
  129.4510  -17.5260  163.6610 C   0  0  0  0  0  0  0  0  0  0  0  0
  129.7180  -18.7250  164.3640 C   0  0  0  0  0  0  0  0  0  0  0  0
  128.7200  -19.6650  164.6520 C   0  0  0  0  0  0  0  0  0  0  0  0
  128.9940  -20.8590  165.3690 N   0  0  0  0  0  0  0  0  0  0  0  0
  128.6790  -21.0330  166.7560 C   0  0  0  0  0  0  0  0  0  0  0  0
  129.4280  -22.2950  167.1250 C   0  0  2  0  0  0  0  0  0  0  0  0
  130.8040  -22.0020  167.7370 C   0  0  0  0  0  0  0  0  0  0  0  0
  131.0720  -20.5770  167.8110 N   0  0  0  0  0  0  0  0  0  0  0  0
  132.0600  -19.9780  167.0600 C   0  0  0  0  0  0  0  0  0  0  0  0
  132.7630  -20.6410  166.2990 O   0  0  0  0  0  0  0  0  0  0  0  0
  132.2010  -18.5360  167.2110 C   0  0  0  0  0  0  0  0  0  0  0  0
  131.1740  -17.6080  167.2860 C   0  0  0  0  0  0  0  0  0  0  0  0
  131.6490  -16.2720  167.4360 C   0  0  0  0  0  0  0  0  0  0  0  0
  133.0180  -16.2400  167.4650 C   0  0  0  0  0  0  0  0  0  0  0  0
  134.0070  -14.8470  167.6290 Cl  0  0  0  0  0  0  0  0  0  0  0  0
  133.7320  -17.7650  167.3220 S   0  0  0  0  0  0  0  0  0  0  0  0
  129.6040  -22.9730  165.8720 O   0  0  0  0  0  0  0  0  0  0  0  0
  129.4880  -22.0520  164.8600 C   0  0  0  0  0  0  0  0  0  0  0  0
  129.7860  -22.3340  163.7110 O   0  0  0  0  0  0  0  0  0  0  0  0
  127.4240  -19.3770  164.2160 C   0  0  0  0  0  0  0  0  0  0  0  0
  127.1430  -18.2070  163.4980 C   0  0  0  0  0  0  0  0  0  0  0  0
  128.1470  -17.2770  163.1870 C   0  0  0  0  0  0  0  0  0  0  0  0
  127.8100  -16.1360  162.3760 N   0  0  0  0  0  0  0  0  0  0  0  0
  128.0070  -16.1640  160.9990 C   0  0  0  0  0  0  0  0  0  0  0  0
  127.7010  -15.1250  160.2140 C   0  0  0  0  0  0  0  0  0  0  0  0
  127.1390  -13.9330  160.7830 C   0  0  0  0  0  0  0  0  0  0  0  0
  126.8970  -13.8460  162.0990 C   0  0  0  0  0  0  0  0  0  0  0  0
  126.2740  -12.6550  162.7550 C   0  0  0  0  0  0  0  0  0  0  0  0
  125.8870  -11.6930  161.7820 O   0  0  0  0  0  0  0  0  0  0  0  0
  127.2380  -15.0020  162.9950 C   0  0  0  0  0  0  0  0  0  0  0  0
  127.0300  -14.8710  164.2040 O   0  0  0  0  0  0  0  0  0  0  0  0
  1  2  1  0
  2  3  2  0
  3  4  1  0
  4  5  1  0
  5  6  1  0
  6  7  1  0
  7  8  1  6
  8  9  1  0
  9 10  1  0
 10 11  2  0
 10 12  1  0
 12 13  2  0
 13 14  1  0
 14 15  2  0
 15 16  1  0
 15 17  1  0
  7 18  1  0
 18 19  1  0
 19 20  2  0
  4 21  2  0
 21 22  1  0
 22 23  2  0
 23 24  1  0
 24 25  1  0
 25 26  2  0
 26 27  1  0
 27 28  2  0
 28 29  1  0
 29 30  1  0
 28 31  1  0
 31 32  2  0
 23  2  1  0
 31 24  1  0
 19  5  1  0
 17 12  1  0
M  END
$$$$
