QGHDWXGDKDWKGF-UHFFFAOYSA-N_3LXP_m1
     RDKit          3D

 36 40  0  0  0  0  0  0  0  0999 V2000
   -0.3710   26.6750  -26.5980 C   0  0  0  0  0  0  0  0  0  0  0  0
   -1.5110   26.0750  -26.0020 O   0  0  0  0  0  0  0  0  0  0  0  0
   -1.8800   24.8270  -26.4360 C   0  0  0  0  0  0  0  0  0  0  0  0
   -2.5330   24.5610  -27.6460 C   0  0  0  0  0  0  0  0  0  0  0  0
   -2.8940   23.2500  -28.0180 C   0  0  0  0  0  0  0  0  0  0  0  0
   -3.5900   22.9420  -29.2900 C   0  0  0  0  0  0  0  0  0  0  0  0
   -3.7940   21.6660  -29.7950 C   0  0  0  0  0  0  0  0  0  0  0  0
   -4.4500   21.4150  -30.9550 N   0  0  0  0  0  0  0  0  0  0  0  0
   -4.8970   22.4850  -31.6350 C   0  0  0  0  0  0  0  0  0  0  0  0
   -5.5790   22.2800  -32.8260 C   0  0  0  0  0  0  0  0  0  0  0  0
   -6.0670   23.3450  -33.5760 C   0  0  0  0  0  0  0  0  0  0  0  0
   -5.8580   24.6440  -33.1310 C   0  0  0  0  0  0  0  0  0  0  0  0
   -5.1650   24.8850  -31.9310 C   0  0  0  0  0  0  0  0  0  0  0  0
   -4.9370   26.2750  -31.5040 C   0  0  0  0  0  0  0  0  0  0  0  0
   -4.1350   26.5650  -30.3900 C   0  0  0  0  0  0  0  0  0  0  0  0
   -3.9240   27.8880  -29.9870 C   0  0  0  0  0  0  0  0  0  0  0  0
   -4.5150   28.9540  -30.6830 C   0  0  0  0  0  0  0  0  0  0  0  0
   -4.2880   30.3840  -30.2410 C   0  0  0  0  0  0  0  0  0  0  0  0
   -4.0350   30.5070  -28.7970 N   0  0  0  0  0  0  0  0  0  0  0  0
   -2.6120   30.8290  -28.5520 C   0  0  0  0  0  0  0  0  0  0  0  0
   -2.3310   31.0210  -27.0540 C   0  0  0  0  0  0  0  0  0  0  0  0
   -3.1520   32.0600  -26.5050 O   0  0  0  0  0  0  0  0  0  0  0  0
   -4.5370   31.7380  -26.6910 C   0  0  0  0  0  0  0  0  0  0  0  0
   -4.8710   31.5610  -28.1810 C   0  0  0  0  0  0  0  0  0  0  0  0
   -5.3120   28.6690  -31.7970 C   0  0  0  0  0  0  0  0  0  0  0  0
   -5.5170   27.3490  -32.1930 C   0  0  0  0  0  0  0  0  0  0  0  0
   -6.3070   27.1210  -33.2540 F   0  0  0  0  0  0  0  0  0  0  0  0
   -4.6880   23.8040  -31.1650 C   0  0  0  0  0  0  0  0  0  0  0  0
   -4.0450   24.0100  -29.9900 N   0  0  0  0  0  0  0  0  0  0  0  0
   -2.5490   22.2030  -27.1320 C   0  0  0  0  0  0  0  0  0  0  0  0
   -1.8840   22.4390  -25.9260 C   0  0  0  0  0  0  0  0  0  0  0  0
   -1.5140   21.4630  -25.0350 O   0  0  0  0  0  0  0  0  0  0  0  0
   -0.8010   20.3480  -25.5560 C   0  0  0  0  0  0  0  0  0  0  0  0
   -1.5770   23.7600  -25.5750 C   0  0  0  0  0  0  0  0  0  0  0  0
   -0.8930   24.0190  -24.4070 O   0  0  0  0  0  0  0  0  0  0  0  0
    0.5000   23.7840  -24.6000 C   0  0  0  0  0  0  0  0  0  0  0  0
  1  2  1  0
  2  3  1  0
  3  4  2  0
  4  5  1  0
  5  6  1  0
  6  7  2  0
  7  8  1  0
  8  9  2  0
  9 10  1  0
 10 11  2  0
 11 12  1  0
 12 13  2  0
 13 14  1  0
 14 15  2  0
 15 16  1  0
 16 17  2  0
 17 18  1  0
 18 19  1  0
 19 20  1  0
 20 21  1  0
 21 22  1  0
 22 23  1  0
 23 24  1  0
 17 25  1  0
 25 26  2  0
 26 27  1  0
 13 28  1  0
 28 29  2  0
  5 30  2  0
 30 31  1  0
 31 32  1  0
 32 33  1  0
 31 34  2  0
 34 35  1  0
 35 36  1  0
 34  3  1  0
 29  6  1  0
 28  9  1  0
 26 14  1  0
 24 19  1  0
M  END
$$$$
