QIUASFSNWYMDFS-NILGECQDSA-N_4L23_m4
     RDKit          3D

 38 41  0  0  0  0  0  0  0  0999 V2000
   30.3000   44.2190   41.7530 C   0  0  0  0  0  0  0  0  0  0  0  0
   30.7120   43.8710   40.5260 C   0  0  0  0  0  0  0  0  0  0  0  0
   32.1130   44.0410   40.0110 C   0  0  0  0  0  0  0  0  0  0  0  0
   32.2700   45.4340   39.5620 N   0  0  0  0  0  0  0  0  0  0  0  0
   33.3210   46.2200   40.0480 C   0  0  0  0  0  0  0  0  0  0  0  0
   34.5710   46.5100   39.6310 C   0  0  0  0  0  0  0  0  0  0  0  0
   35.4000   47.2650   40.6170 C   0  0  0  0  0  0  0  0  0  0  0  0
   34.9410   48.0410   41.4470 O   0  0  0  0  0  0  0  0  0  0  0  0
   36.7190   46.9340   40.6240 O   0  0  0  0  0  0  0  0  0  0  0  0
   37.4200   46.4570   39.4370 C   0  0  2  0  0  0  0  0  0  0  0  0
   37.9970   47.6960   38.7170 C   0  0  0  0  0  0  0  0  0  0  0  0
   38.7090   48.5460   39.6120 O   0  0  0  0  0  0  0  0  0  0  0  0
   40.0050   48.0550   39.9290 C   0  0  0  0  0  0  0  0  0  0  0  0
   36.5730   45.4580   38.5760 C   0  0  1  0  0  0  0  0  0  0  0  0
   36.3560   44.1470   39.3830 C   0  0  0  0  0  0  0  0  0  0  0  0
   35.2130   46.1240   38.3830 C   0  0  0  0  0  0  0  0  0  0  0  0
   34.7360   46.5190   37.1920 C   0  0  0  0  0  0  0  0  0  0  0  0
   33.5680   47.2530   37.0580 O   0  0  0  0  0  0  0  0  0  0  0  0
   35.4870   46.2480   35.9450 C   0  0  0  0  0  0  0  0  0  0  0  0
   35.0310   46.6770   34.8880 O   0  0  0  0  0  0  0  0  0  0  0  0
   36.7360   45.4510   36.0230 C   0  0  0  0  0  0  0  0  0  0  0  0
   37.2570   45.0870   37.2260 C   0  0  0  0  0  0  0  0  0  0  0  0
   38.5290   44.2050   37.2930 C   0  0  2  0  0  0  0  0  0  0  0  0
   39.5200   44.8770   38.0870 O   0  0  0  0  0  0  0  0  0  0  0  0
   40.5170   45.4940   37.3910 C   0  0  0  0  0  0  0  0  0  0  0  0
   41.8380   44.8810   37.7360 C   0  0  0  0  0  0  0  0  0  0  0  0
   40.3610   46.4040   36.5910 O   0  0  0  0  0  0  0  0  0  0  0  0
   39.1790   43.8510   35.9330 C   0  0  0  0  0  0  0  0  0  0  0  0
   38.1240   43.7150   34.8490 C   0  0  2  0  0  0  0  0  0  0  0  0
   37.1940   42.5110   35.0960 C   0  0  0  0  0  0  0  0  0  0  0  0
   38.6420   43.5930   33.4320 C   0  0  0  0  0  0  0  0  0  0  0  0
   39.6140   42.9280   33.1070 O   0  0  0  0  0  0  0  0  0  0  0  0
   37.7860   44.3770   32.4600 C   0  0  0  0  0  0  0  0  0  0  0  0
   36.7230   45.0010   33.3740 C   0  0  0  0  0  0  0  0  0  0  0  0
   37.4280   45.0870   34.7340 C   0  0  1  0  0  0  0  0  0  0  0  0
   31.2820   45.8580   38.5680 C   0  0  0  0  0  0  0  0  0  0  0  0
   30.7450   47.2400   38.8450 C   0  0  0  0  0  0  0  0  0  0  0  0
   30.3530   48.1770   37.9680 C   0  0  0  0  0  0  0  0  0  0  0  0
  1  2  2  0
  2  3  1  0
  3  4  1  0
  4  5  1  0
  5  6  2  0
  6  7  1  0
  7  8  2  0
  7  9  1  0
  9 10  1  0
 10 11  1  6
 11 12  1  0
 12 13  1  0
 10 14  1  0
 14 15  1  1
 14 16  1  0
 16 17  2  0
 17 18  1  0
 17 19  1  0
 19 20  2  0
 19 21  1  0
 21 22  2  0
 22 23  1  0
 23 24  1  1
 24 25  1  0
 25 26  1  0
 25 27  2  0
 23 28  1  0
 28 29  1  0
 29 30  1  1
 29 31  1  0
 31 32  2  0
 31 33  1  0
 33 34  1  0
 35 34  1  6
  4 36  1  0
 36 37  1  0
 37 38  2  0
 16  6  1  0
 35 21  1  0
 22 14  1  0
 35 29  1  0
M  END
$$$$
