QLHHRYZMBGPBJG-UHFFFAOYSA-N_4JT6_m4
     RDKit          3D

 38 44  0  0  0  0  0  0  0  0999 V2000
   60.0740    2.0190  -39.0750 C   0  0  0  0  0  0  0  0  0  0  0  0
   59.4240    2.2220  -40.3450 N   0  0  0  0  0  0  0  0  0  0  0  0
   58.1770    1.6890  -40.5930 C   0  0  0  0  0  0  0  0  0  0  0  0
   57.5850    1.0060  -39.7670 O   0  0  0  0  0  0  0  0  0  0  0  0
   57.7230    2.0510  -41.8420 N   0  0  0  0  0  0  0  0  0  0  0  0
   56.5550    1.6030  -42.4910 C   0  0  0  0  0  0  0  0  0  0  0  0
   55.6450    0.8560  -41.7380 C   0  0  0  0  0  0  0  0  0  0  0  0
   54.4620    0.3730  -42.3170 C   0  0  0  0  0  0  0  0  0  0  0  0
   54.1430    0.6330  -43.6610 C   0  0  0  0  0  0  0  0  0  0  0  0
   52.8980    0.1260  -44.2780 C   0  0  0  0  0  0  0  0  0  0  0  0
   52.8310    0.1550  -45.6270 N   0  0  0  0  0  0  0  0  0  0  0  0
   51.7280   -0.2850  -46.2990 C   0  0  0  0  0  0  0  0  0  0  0  0
   51.7410   -0.1770  -47.6830 N   0  0  0  0  0  0  0  0  0  0  0  0
   51.0140   -1.1010  -48.5630 C   0  0  0  0  0  0  0  0  0  0  0  0
   50.9660   -0.5910  -50.0230 C   0  0  1  0  0  0  0  0  0  0  0  0
   50.2640    0.7590  -50.1430 C   0  0  0  0  0  0  0  0  0  0  0  0
   51.3870    1.7700  -49.9620 C   0  0  0  0  0  0  0  0  0  0  0  0
   52.6280    0.9040  -49.7610 C   0  0  1  0  0  0  0  0  0  0  0  0
   52.8730    0.5690  -48.2740 C   0  0  0  0  0  0  0  0  0  0  0  0
   52.3100   -0.3130  -50.4700 O   0  0  0  0  0  0  0  0  0  0  0  0
   50.6880   -0.8000  -45.4980 C   0  0  0  0  0  0  0  0  0  0  0  0
   49.4160   -1.3960  -45.6510 C   0  0  0  0  0  0  0  0  0  0  0  0
   48.8340   -1.7190  -44.4930 N   0  0  0  0  0  0  0  0  0  0  0  0
   49.7360   -1.3280  -43.5700 N   0  0  0  0  0  0  0  0  0  0  0  0
   49.5030   -1.5410  -42.1430 C   0  0  0  0  0  0  0  0  0  0  0  0
   50.3800   -2.6790  -41.5960 C   0  0  0  0  0  0  0  0  0  0  0  0
   49.8050   -4.0690  -41.8720 C   0  0  0  0  0  0  0  0  0  0  0  0
   48.3660   -4.1990  -41.3700 C   0  0  0  0  0  0  0  0  0  0  0  0
   47.4680   -3.1250  -41.9860 C   0  0  0  0  0  0  0  0  0  0  0  0
   48.0170   -1.7110  -41.7720 C   0  0  0  0  0  0  0  0  0  0  0  0
   48.3460   -4.0440  -39.9380 O   0  0  0  0  0  0  0  0  0  0  0  0
   48.0920   -5.3550  -39.4330 C   0  0  0  0  0  0  0  0  0  0  0  0
   47.2700   -5.9920  -40.5170 C   0  0  0  0  0  0  0  0  0  0  0  0
   47.8700   -5.5000  -41.7130 O   0  0  0  0  0  0  0  0  0  0  0  0
   50.8660   -0.7780  -44.1240 C   0  0  0  0  0  0  0  0  0  0  0  0
   51.9370   -0.3220  -43.4530 N   0  0  0  0  0  0  0  0  0  0  0  0
   55.0680    1.3960  -44.3960 C   0  0  0  0  0  0  0  0  0  0  0  0
   56.2560    1.8740  -43.8240 C   0  0  0  0  0  0  0  0  0  0  0  0
  1  2  1  0
  2  3  1  0
  3  4  2  0
  3  5  1  0
  5  6  1  0
  6  7  2  0
  7  8  1  0
  8  9  2  0
  9 10  1  0
 10 11  2  0
 11 12  1  0
 12 13  1  0
 13 14  1  0
 15 14  1  1
 15 16  1  0
 16 17  1  0
 18 17  1  1
 18 19  1  0
 18 20  1  0
 12 21  2  0
 21 22  1  0
 22 23  2  0
 23 24  1  0
 24 25  1  0
 25 26  1  0
 26 27  1  0
 27 28  1  0
 28 29  1  0
 29 30  1  0
 28 31  1  0
 31 32  1  0
 32 33  1  0
 33 34  1  0
 24 35  1  0
 35 36  2  0
  9 37  1  0
 37 38  2  0
 38  6  1  0
 36 10  1  0
 19 13  1  0
 35 21  1  0
 20 15  1  0
 30 25  1  0
 34 28  1  0
M  END
$$$$
