QLRBBYAOCQZZKR-XXBNENTESA-N_6N7A_m3
     RDKit          3D

 30 33  0  0  0  0  0  0  0  0999 V2000
    1.7610  -24.4590   20.6560 C   0  0  0  0  0  0  0  0  0  0  0  0
    3.0590  -24.9360   20.9810 O   0  0  0  0  0  0  0  0  0  0  0  0
    3.1690  -26.2610   21.3230 C   0  0  0  0  0  0  0  0  0  0  0  0
    2.1490  -27.2030   21.1440 C   0  0  0  0  0  0  0  0  0  0  0  0
    2.3360  -28.5350   21.5250 C   0  0  0  0  0  0  0  0  0  0  0  0
    3.5420  -28.9380   22.0950 C   0  0  0  0  0  0  0  0  0  0  0  0
    4.5630  -28.0080   22.2870 C   0  0  0  0  0  0  0  0  0  0  0  0
    4.3830  -26.6700   21.9070 C   0  0  0  0  0  0  0  0  0  0  0  0
    5.4690  -25.7350   22.1310 C   0  0  0  0  0  0  0  0  0  0  0  0
    5.6890  -24.4550   21.5600 C   0  0  0  0  0  0  0  0  0  0  0  0
    6.8770  -23.9580   22.0760 C   0  0  0  0  0  0  0  0  0  0  0  0
    7.6100  -22.7400   21.8820 C   0  0  0  0  0  0  0  0  0  0  0  0
    7.0340  -21.7630   21.0670 N   0  0  0  0  0  0  0  0  0  0  0  0
    6.4830  -20.4850   21.5410 C   0  0  2  0  0  0  0  0  0  0  0  0
    5.1260  -20.7360   22.2340 C   0  0  0  0  0  0  0  0  0  0  0  0
    4.0300  -20.3980   21.2150 C   0  0  0  0  0  0  0  0  0  0  0  0
    4.7450  -20.0960   19.8810 C   0  0  2  0  0  0  0  0  0  0  0  0
    3.9200  -19.1490   19.0030 C   0  0  0  0  0  0  0  0  0  0  0  0
    4.8940  -21.3750   19.1490 N   0  0  0  0  0  0  0  0  0  0  0  0
    6.1320  -19.5380   20.3510 C   0  0  0  0  0  0  0  0  0  0  0  0
    6.0290  -18.0860   20.8910 C   0  0  0  0  0  0  0  0  0  0  0  0
    7.2020  -19.5120   19.2420 C   0  0  0  0  0  0  0  0  0  0  0  0
    8.8170  -22.6530   22.4920 C   0  0  0  0  0  0  0  0  0  0  0  0
    9.7970  -21.5500   22.3100 C   0  0  0  0  0  0  0  0  0  0  0  0
   10.5130  -21.5680   21.1540 N   0  0  0  0  0  0  0  0  0  0  0  0
   10.0120  -20.7150   23.1810 O   0  0  0  0  0  0  0  0  0  0  0  0
    9.1870  -23.7560   23.4220 C   0  0  0  0  0  0  0  0  0  0  0  0
    8.5220  -24.8410   23.6590 N   0  0  0  0  0  0  0  0  0  0  0  0
    7.3740  -24.9100   22.9470 N   0  0  0  0  0  0  0  0  0  0  0  0
    6.5150  -25.9780   22.9940 C   0  0  0  0  0  0  0  0  0  0  0  0
  1  2  1  0
  2  3  1  0
  3  4  2  0
  4  5  1  0
  5  6  2  0
  6  7  1  0
  7  8  2  0
  8  9  1  0
  9 10  1  0
 10 11  2  0
 11 12  1  0
 12 13  1  0
 14 13  1  6
 14 15  1  0
 15 16  1  0
 16 17  1  0
 17 18  1  6
 17 19  1  0
 17 20  1  0
 20 21  1  0
 20 22  1  0
 12 23  2  0
 23 24  1  0
 24 25  1  0
 24 26  2  0
 23 27  1  0
 27 28  2  0
 28 29  1  0
 29 30  1  0
  8  3  1  0
 30  9  2  0
 29 11  1  0
 20 14  1  0
M  END
$$$$
