QMHIQYFDHQKWPO-IBGZPJMESA-N_6N7A_m8
     RDKit          3D

 31 34  0  0  0  0  0  0  0  0999 V2000
   12.4860  -27.7870   25.6830 C   0  0  0  0  0  0  0  0  0  0  0  0
   11.8040  -26.5730   25.0630 C   0  0  0  0  0  0  0  0  0  0  0  0
   10.5790  -26.0900   25.8680 C   0  0  0  0  0  0  0  0  0  0  0  0
   10.6000  -26.5740   27.3320 C   0  0  0  0  0  0  0  0  0  0  0  0
   11.0190  -25.4960   28.3220 C   0  0  0  0  0  0  0  0  0  0  0  0
    9.3200  -26.4860   25.2310 N   0  0  0  0  0  0  0  0  0  0  0  0
    8.5050  -25.7160   24.4440 C   0  0  0  0  0  0  0  0  0  0  0  0
    7.4420  -26.5150   24.0670 C   0  0  0  0  0  0  0  0  0  0  0  0
    6.3070  -26.2060   23.2210 C   0  0  0  0  0  0  0  0  0  0  0  0
    6.1950  -24.9770   22.8060 N   0  0  0  0  0  0  0  0  0  0  0  0
    5.1040  -24.6310   22.0240 C   0  0  0  0  0  0  0  0  0  0  0  0
    5.0750  -23.2520   21.6350 C   0  0  0  0  0  0  0  0  0  0  0  0
    5.5370  -22.1290   22.3600 C   0  0  0  0  0  0  0  0  0  0  0  0
    5.3520  -20.9780   21.7050 N   0  0  0  0  0  0  0  0  0  0  0  0
    4.7670  -21.3650   20.5540 N   0  0  0  0  0  0  0  0  0  0  0  0
    4.4200  -20.3690   19.5590 C   0  0  0  0  0  0  0  0  0  0  0  0
    3.3550  -19.3720   20.0190 C   0  0  1  0  0  0  0  0  0  0  0  0
    2.6100  -19.9080   21.1240 O   0  0  0  0  0  0  0  0  0  0  0  0
    3.9090  -17.9810   20.4060 C   0  0  0  0  0  0  0  0  0  0  0  0
    3.1000  -16.8910   19.8000 N   0  0  0  0  0  0  0  0  0  0  0  0
    2.3560  -17.4180   18.6490 C   0  0  0  0  0  0  0  0  0  0  0  0
    2.1530  -16.3230   20.7660 C   0  0  0  0  0  0  0  0  0  0  0  0
    4.5860  -22.7160   20.4630 C   0  0  0  0  0  0  0  0  0  0  0  0
    4.1600  -25.5250   21.6780 C   0  0  0  0  0  0  0  0  0  0  0  0
    4.2790  -26.8360   22.0930 N   0  0  0  0  0  0  0  0  0  0  0  0
    3.4490  -27.8750   21.8330 N   0  0  0  0  0  0  0  0  0  0  0  0
    4.0430  -28.9280   22.3930 C   0  0  0  0  0  0  0  0  0  0  0  0
    5.2430  -28.5880   23.0390 C   0  0  0  0  0  0  0  0  0  0  0  0
    5.3590  -27.2270   22.8610 C   0  0  0  0  0  0  0  0  0  0  0  0
    7.7460  -27.7640   24.6610 C   0  0  0  0  0  0  0  0  0  0  0  0
    8.8710  -27.7440   25.3790 N   0  0  0  0  0  0  0  0  0  0  0  0
  1  2  1  0
  2  3  1  0
  3  4  1  0
  4  5  1  0
  3  6  1  0
  6  7  1  0
  7  8  2  0
  8  9  1  0
  9 10  2  0
 10 11  1  0
 11 12  1  0
 12 13  1  0
 13 14  2  0
 14 15  1  0
 15 16  1  0
 16 17  1  0
 17 18  1  1
 17 19  1  0
 19 20  1  0
 20 21  1  0
 20 22  1  0
 15 23  1  0
 11 24  2  0
 24 25  1  0
 25 26  1  0
 26 27  2  0
 27 28  1  0
 28 29  2  0
  8 30  1  0
 30 31  2  0
 31  6  1  0
 29  9  1  0
 23 12  2  0
 29 25  1  0
M  END
$$$$
