QNEHTPKTYOFLPX-IYBDPMFKSA-N_6N7A_m4
     RDKit          3D

 26 29  0  0  0  0  0  0  0  0999 V2000
    2.6190  -16.8520   21.2070 C   0  0  0  0  0  0  0  0  0  0  0  0
    2.3400  -17.6040   19.9920 N   0  0  0  0  0  0  0  0  0  0  0  0
    1.5670  -16.9550   19.0020 C   0  0  0  0  0  0  0  0  0  0  0  0
    2.1560  -16.7510   17.7860 N   0  0  0  0  0  0  0  0  0  0  0  0
    1.4750  -16.1570   16.7910 C   0  0  0  0  0  0  0  0  0  0  0  0
    0.2170  -15.7040   16.8140 N   0  0  0  0  0  0  0  0  0  0  0  0
   -0.3430  -15.8990   18.0150 C   0  0  0  0  0  0  0  0  0  0  0  0
   -1.6230  -15.5270   18.3170 N   0  0  0  0  0  0  0  0  0  0  0  0
   -1.9110  -15.8710   19.6090 C   0  0  0  0  0  0  0  0  0  0  0  0
   -0.7800  -16.4470   20.1450 C   0  0  0  0  0  0  0  0  0  0  0  0
    0.2300  -16.4940   19.1330 C   0  0  0  0  0  0  0  0  0  0  0  0
    2.4760  -19.0380   20.0500 C   0  0  2  0  0  0  0  0  0  0  0  0
    2.6720  -19.6030   21.4880 C   0  0  0  0  0  0  0  0  0  0  0  0
    3.6050  -20.6660   20.8410 C   0  0  2  0  0  0  0  0  0  0  0  0
    4.7960  -21.1800   21.6260 C   0  0  0  0  0  0  0  0  0  0  0  0
    5.4330  -22.6750   20.8780 S   0  0  0  0  0  0  0  0  0  0  0  0
    6.8250  -22.4440   20.5350 O   0  0  0  0  0  0  0  0  0  0  0  0
    4.4780  -23.1060   19.8730 O   0  0  0  0  0  0  0  0  0  0  0  0
    5.3800  -23.8500   22.2250 C   0  0  0  0  0  0  0  0  0  0  0  0
    4.8140  -25.2090   21.8220 C   0  0  0  0  0  0  0  0  0  0  0  0
    5.0060  -26.3170   22.8570 C   0  0  0  0  0  0  0  0  0  0  0  0
    4.4730  -27.6640   22.3720 C   0  0  0  0  0  0  0  0  0  0  0  0
    5.1070  -28.6520   23.3430 C   0  0  0  0  0  0  0  0  0  0  0  0
    6.4890  -28.0820   23.6520 C   0  0  0  0  0  0  0  0  0  0  0  0
    6.4700  -26.6280   23.1770 C   0  0  0  0  0  0  0  0  0  0  0  0
    3.9110  -19.5800   19.7750 C   0  0  0  0  0  0  0  0  0  0  0  0
  1  2  1  0
  2  3  1  0
  3  4  2  0
  4  5  1  0
  5  6  2  0
  6  7  1  0
  7  8  1  0
  8  9  1  0
  9 10  2  0
 10 11  1  0
 12  2  1  6
 12 13  1  0
 13 14  1  0
 14 15  1  6
 15 16  1  0
 16 17  2  0
 16 18  2  0
 16 19  1  0
 19 20  1  0
 20 21  1  0
 21 22  1  0
 22 23  1  0
 23 24  1  0
 24 25  1  0
 14 26  1  0
 11  3  1  0
 26 12  1  0
 11  7  2  0
 25 21  1  0
M  END
$$$$
