QPKIEBNVIOELIR-MHZLTWQESA-N_6LXA_m2
     RDKit          3D

 33 35  0  0  0  0  0  0  0  0999 V2000
    7.5580   15.4380  -10.2890 C   0  0  0  0  0  0  0  0  0  0  0  0
    7.9020   15.2600   -8.8200 C   0  0  0  0  0  0  0  0  0  0  0  0
    9.0580   14.2870   -8.5770 C   0  0  0  0  0  0  0  0  0  0  0  0
   10.2000   14.8180   -7.7030 C   0  0  0  0  0  0  0  0  0  0  0  0
   11.2910   13.8030   -7.3430 C   0  0  0  0  0  0  0  0  0  0  0  0
   10.9990   12.9220   -6.1220 C   0  0  0  0  0  0  0  0  0  0  0  0
   11.1680   11.4140   -6.3450 C   0  0  0  0  0  0  0  0  0  0  0  0
   10.0330   10.8380   -7.0520 N   0  0  0  0  0  0  0  0  0  0  0  0
    8.6950   10.9810   -6.4820 C   0  0  0  0  0  0  0  0  0  0  0  0
    8.7230   10.8100   -4.9560 C   0  0  0  0  0  0  0  0  0  0  0  0
    7.4270   10.2390   -4.4360 C   0  0  0  0  0  0  0  0  0  0  0  0
    6.4960    9.6790   -5.3170 C   0  0  0  0  0  0  0  0  0  0  0  0
    5.3050    9.1190   -4.8400 C   0  0  0  0  0  0  0  0  0  0  0  0
    5.0290    9.1090   -3.4770 C   0  0  0  0  0  0  0  0  0  0  0  0
    3.9220    8.6040   -2.8590 O   0  0  0  0  0  0  0  0  0  0  0  0
    3.8800    7.2930   -2.2840 C   0  0  1  0  0  0  0  0  0  0  0  0
    2.7780    6.5740   -3.0930 C   0  0  0  0  0  0  0  0  0  0  0  0
    5.2220    6.5330   -2.4680 C   0  0  0  0  0  0  0  0  0  0  0  0
    5.2530    5.1270   -1.8760 C   0  0  0  0  0  0  0  0  0  0  0  0
    3.3730    7.2410   -0.8260 C   0  0  0  0  0  0  0  0  0  0  0  0
    2.4430    6.5850   -0.3860 O   0  0  0  0  0  0  0  0  0  0  0  0
    4.1040    7.9910    0.0300 O   0  0  0  0  0  0  0  0  0  0  0  0
    5.9640    9.6590   -2.5960 C   0  0  0  0  0  0  0  0  0  0  0  0
    7.1530   10.2210   -3.0650 C   0  0  0  0  0  0  0  0  0  0  0  0
   10.1600   10.2250   -8.2510 C   0  0  0  0  0  0  0  0  0  0  0  0
   10.3210   10.7810   -9.4360 N   0  0  0  0  0  0  0  0  0  0  0  0
   10.3810    9.7170  -10.2980 C   0  0  0  0  0  0  0  0  0  0  0  0
   10.5340    9.6620  -11.6890 C   0  0  0  0  0  0  0  0  0  0  0  0
   10.5550    8.3990  -12.3010 C   0  0  0  0  0  0  0  0  0  0  0  0
   10.4270    7.2250  -11.5450 C   0  0  0  0  0  0  0  0  0  0  0  0
   10.2740    7.2660  -10.1540 C   0  0  0  0  0  0  0  0  0  0  0  0
   10.2590    8.5350   -9.5900 C   0  0  0  0  0  0  0  0  0  0  0  0
   10.1240    8.8550   -8.2740 O   0  0  0  0  0  0  0  0  0  0  0  0
  1  2  1  0
  2  3  1  0
  3  4  1  0
  4  5  1  0
  5  6  1  0
  6  7  1  0
  7  8  1  0
  8  9  1  0
  9 10  1  0
 10 11  1  0
 11 12  2  0
 12 13  1  0
 13 14  2  0
 14 15  1  0
 16 15  1  0
 16 17  1  6
 16 18  1  0
 18 19  1  0
 16 20  1  0
 20 21  2  0
 20 22  1  0
 14 23  1  0
 23 24  2  0
  8 25  1  0
 25 26  2  0
 26 27  1  0
 27 28  2  0
 28 29  1  0
 29 30  2  0
 30 31  1  0
 31 32  2  0
 32 33  1  0
 24 11  1  0
 33 25  1  0
 32 27  1  0
M  END
$$$$
