RFUNNAWGSBMBCL-UCQKPKSFSA-N_9V8H_m8
     RDKit          3D

 35 38  0  0  0  0  0  0  0  0999 V2000
  -11.4520   -0.6570  -32.2130 C   0  0  0  0  0  0  0  0  0  0  0  0
  -11.4890   -1.5590  -33.3170 O   0  0  0  0  0  0  0  0  0  0  0  0
  -12.0410   -2.7880  -33.0610 C   0  0  0  0  0  0  0  0  0  0  0  0
  -11.2770   -3.8790  -32.6220 C   0  0  0  0  0  0  0  0  0  0  0  0
  -11.8810   -5.1090  -32.3250 C   0  0  0  0  0  0  0  0  0  0  0  0
  -11.0900   -6.2670  -31.8920 C   0  0  0  0  0  0  0  0  0  0  0  0
  -10.8050   -6.6150  -30.6310 C   0  0  0  0  0  0  0  0  0  0  0  0
  -11.2880   -5.8530  -29.1700 S   0  0  0  0  0  0  0  0  0  0  0  0
  -10.3990   -7.0610  -28.2500 C   0  0  0  0  0  0  0  0  0  0  0  0
  -10.4470   -6.8790  -26.9000 N   0  0  0  0  0  0  0  0  0  0  0  0
   -9.8370   -7.6210  -25.8740 C   0  0  0  0  0  0  0  0  0  0  0  0
   -8.4900   -7.9950  -26.0320 C   0  0  0  0  0  0  0  0  0  0  0  0
   -7.8250   -8.7520  -25.0620 C   0  0  0  0  0  0  0  0  0  0  0  0
   -8.5050   -9.1450  -23.9070 C   0  0  0  0  0  0  0  0  0  0  0  0
   -7.6260  -10.1150  -22.7190 S   0  0  0  0  0  0  0  0  0  0  0  0
   -6.7880   -9.0020  -21.7810 N   0  0  0  0  0  0  0  0  0  0  0  0
   -8.5950  -10.7180  -21.8320 O   0  0  0  0  0  0  0  0  0  0  0  0
   -6.6190  -10.8800  -23.4160 O   0  0  0  0  0  0  0  0  0  0  0  0
   -9.8390   -8.7940  -23.7280 C   0  0  0  0  0  0  0  0  0  0  0  0
  -10.4950   -8.0350  -24.7090 C   0  0  0  0  0  0  0  0  0  0  0  0
   -9.8040   -7.9640  -28.9530 N   0  0  0  0  0  0  0  0  0  0  0  0
   -9.9810   -7.8170  -30.3060 C   0  0  0  0  0  0  0  0  0  0  0  0
   -9.5270   -8.5710  -31.1570 O   0  0  0  0  0  0  0  0  0  0  0  0
  -13.2600   -5.2520  -32.4910 C   0  0  0  0  0  0  0  0  0  0  0  0
  -14.0220   -4.1800  -32.9570 C   0  0  0  0  0  0  0  0  0  0  0  0
  -13.4190   -2.9590  -33.2720 C   0  0  0  0  0  0  0  0  0  0  0  0
  -14.2970   -2.0030  -33.7160 O   0  0  0  0  0  0  0  0  0  0  0  0
  -15.5790   -2.0030  -33.0900 C   0  0  0  0  0  0  0  0  0  0  0  0
  -15.3950   -1.5630  -31.6570 C   0  0  0  0  0  0  0  0  0  0  0  0
  -15.5790   -2.4690  -30.6060 C   0  0  0  0  0  0  0  0  0  0  0  0
  -15.4210   -2.0610  -29.2790 C   0  0  0  0  0  0  0  0  0  0  0  0
  -15.0920   -0.7350  -28.9790 C   0  0  0  0  0  0  0  0  0  0  0  0
  -14.8900   -0.3070  -27.5560 C   0  0  0  0  0  0  0  0  0  0  0  0
  -14.9060    0.1730  -30.0280 C   0  0  0  0  0  0  0  0  0  0  0  0
  -15.0660   -0.2350  -31.3550 C   0  0  0  0  0  0  0  0  0  0  0  0
  1  2  1  0
  2  3  1  0
  3  4  2  0
  4  5  1  0
  5  6  1  0
  6  7  2  0
  7  8  1  0
  8  9  1  0
  9 10  1  0
 10 11  1  0
 11 12  2  0
 12 13  1  0
 13 14  2  0
 14 15  1  0
 15 16  1  0
 15 17  2  0
 15 18  2  0
 14 19  1  0
 19 20  2  0
  9 21  2  0
 21 22  1  0
 22 23  2  0
  5 24  2  0
 24 25  1  0
 25 26  2  0
 26 27  1  0
 27 28  1  0
 28 29  1  0
 29 30  2  0
 30 31  1  0
 31 32  2  0
 32 33  1  0
 32 34  1  0
 34 35  2  0
 26  3  1  0
 35 29  1  0
 22  7  1  0
 20 11  1  0
M  END
$$$$
