RIZRLVOFNUVLSK-UHFFFAOYSA-N_6N7A_m6
     RDKit          3D

 26 28  0  0  0  0  0  0  0  0999 V2000
    4.3840  -27.6120   22.9830 C   0  0  0  0  0  0  0  0  0  0  0  0
    4.7500  -26.3520   22.2420 C   0  0  0  0  0  0  0  0  0  0  0  0
    4.1020  -25.9780   21.2710 O   0  0  0  0  0  0  0  0  0  0  0  0
    5.8650  -25.7450   22.7700 N   0  0  0  0  0  0  0  0  0  0  0  0
    6.4920  -24.5700   22.3530 C   0  0  0  0  0  0  0  0  0  0  0  0
    5.8520  -23.3430   22.2610 C   0  0  0  0  0  0  0  0  0  0  0  0
    6.6070  -22.2430   21.8110 C   0  0  0  0  0  0  0  0  0  0  0  0
    6.3270  -20.8570   21.5810 C   0  0  0  0  0  0  0  0  0  0  0  0
    5.0930  -20.0950   21.7180 C   0  0  0  0  0  0  0  0  0  0  0  0
    4.4310  -19.9950   22.9390 C   0  0  0  0  0  0  0  0  0  0  0  0
    3.2530  -19.2500   23.0150 C   0  0  0  0  0  0  0  0  0  0  0  0
    2.7620  -18.6310   21.8720 C   0  0  0  0  0  0  0  0  0  0  0  0
    3.4810  -18.8000   20.6990 C   0  0  0  0  0  0  0  0  0  0  0  0
    2.9390  -17.9970   19.1880 S   0  0  0  0  0  0  0  0  0  0  0  0
    1.4940  -18.1230   19.1380 O   0  0  0  0  0  0  0  0  0  0  0  0
    3.7580  -18.5050   18.1040 O   0  0  0  0  0  0  0  0  0  0  0  0
    3.2840  -16.3350   19.4060 N   0  0  0  0  0  0  0  0  0  0  0  0
    4.6790  -15.9850   19.7340 C   0  0  0  0  0  0  0  0  0  0  0  0
    2.3020  -15.5740   20.1990 C   0  0  0  0  0  0  0  0  0  0  0  0
    4.6360  -19.5080   20.5880 N   0  0  0  0  0  0  0  0  0  0  0  0
    7.5120  -20.2710   21.1730 C   0  0  0  0  0  0  0  0  0  0  0  0
    8.4780  -21.2380   21.1250 N   0  0  0  0  0  0  0  0  0  0  0  0
    9.8510  -21.0090   20.7310 C   0  0  0  0  0  0  0  0  0  0  0  0
    7.9550  -22.4520   21.5110 C   0  0  0  0  0  0  0  0  0  0  0  0
    8.5410  -23.7060   21.6300 C   0  0  0  0  0  0  0  0  0  0  0  0
    7.7940  -24.7520   22.0490 N   0  0  0  0  0  0  0  0  0  0  0  0
  1  2  1  0
  2  3  2  0
  2  4  1  0
  4  5  1  0
  5  6  2  0
  6  7  1  0
  7  8  1  0
  8  9  1  0
  9 10  2  0
 10 11  1  0
 11 12  2  0
 12 13  1  0
 13 14  1  0
 14 15  2  0
 14 16  2  0
 14 17  1  0
 17 18  1  0
 17 19  1  0
 13 20  2  0
  8 21  2  0
 21 22  1  0
 22 23  1  0
 22 24  1  0
 24 25  1  0
 25 26  2  0
 26  5  1  0
 24  7  2  0
 20  9  1  0
M  END
$$$$
