RJBMVGPWWMWGNI-XIJSCUBXSA-N_9V8H_m5
     RDKit          3D

 38 40  0  0  0  0  0  0  0  0999 V2000
   -4.2810   -5.5880  -20.6910 C   0  0  0  0  0  0  0  0  0  0  0  0
   -5.3530   -6.2340  -19.8310 C   0  0  0  0  0  0  0  0  0  0  0  0
   -6.0590   -7.2360  -20.5610 O   0  0  0  0  0  0  0  0  0  0  0  0
   -7.2530   -6.7660  -21.2030 C   0  0  1  0  0  0  0  0  0  0  0  0
   -8.0570   -8.0210  -21.5810 C   0  0  0  0  0  0  0  0  0  0  0  0
   -8.0620   -8.3540  -23.0530 C   0  0  0  0  0  0  0  0  0  0  0  0
   -8.8010   -7.5850  -23.9620 C   0  0  0  0  0  0  0  0  0  0  0  0
   -8.8580   -7.9420  -25.3100 C   0  0  0  0  0  0  0  0  0  0  0  0
   -8.1680   -9.0670  -25.7770 C   0  0  0  0  0  0  0  0  0  0  0  0
   -8.2940   -9.5070  -27.2140 C   0  0  0  0  0  0  0  0  0  0  0  0
   -8.6190   -8.3590  -28.1790 C   0  0  0  0  0  0  0  0  0  0  0  0
   -9.3830   -8.7740  -29.4530 C   0  0  1  0  0  0  0  0  0  0  0  0
  -10.7640   -8.3550  -29.2570 O   0  0  0  0  0  0  0  0  0  0  0  0
  -11.8000   -8.7630  -30.0280 C   0  0  0  0  0  0  0  0  0  0  0  0
  -11.7940  -10.0960  -31.0160 S   0  0  0  0  0  0  0  0  0  0  0  0
  -12.9100   -7.9790  -29.9050 N   0  0  0  0  0  0  0  0  0  0  0  0
  -12.9890   -6.8020  -29.0740 C   0  0  0  0  0  0  0  0  0  0  0  0
  -12.4030   -5.6030  -29.7680 C   0  0  0  0  0  0  0  0  0  0  0  0
  -11.7130   -4.6240  -29.0500 C   0  0  0  0  0  0  0  0  0  0  0  0
  -11.1770   -3.5090  -29.7070 C   0  0  0  0  0  0  0  0  0  0  0  0
  -11.3140   -3.3330  -31.0980 C   0  0  0  0  0  0  0  0  0  0  0  0
  -10.7000   -2.1030  -31.7890 C   0  0  0  0  0  0  0  0  0  0  0  0
   -9.2770   -1.8560  -31.2430 C   0  0  0  0  0  0  0  0  0  0  0  0
  -11.5730   -0.8600  -31.5100 C   0  0  0  0  0  0  0  0  0  0  0  0
  -10.5820   -2.2400  -33.3250 C   0  0  0  0  0  0  0  0  0  0  0  0
  -12.0260   -4.3180  -31.8000 C   0  0  0  0  0  0  0  0  0  0  0  0
  -12.5690   -5.4310  -31.1460 C   0  0  0  0  0  0  0  0  0  0  0  0
   -8.8690   -8.0970  -30.7090 C   0  0  0  0  0  0  0  0  0  0  0  0
   -9.2380   -6.7740  -30.9950 C   0  0  0  0  0  0  0  0  0  0  0  0
   -8.7730   -6.1380  -32.1470 C   0  0  0  0  0  0  0  0  0  0  0  0
   -7.9270   -6.8130  -33.0240 C   0  0  0  0  0  0  0  0  0  0  0  0
   -7.5390   -8.1220  -32.7470 C   0  0  0  0  0  0  0  0  0  0  0  0
   -8.0060   -8.7600  -31.5960 C   0  0  0  0  0  0  0  0  0  0  0  0
   -7.3850   -9.8020  -24.8790 C   0  0  0  0  0  0  0  0  0  0  0  0
   -7.3360   -9.4520  -23.5290 C   0  0  0  0  0  0  0  0  0  0  0  0
   -8.1030   -5.8660  -20.2960 C   0  0  0  0  0  0  0  0  0  0  0  0
   -8.6630   -6.1870  -19.2570 O   0  0  0  0  0  0  0  0  0  0  0  0
   -8.1530   -4.5880  -20.7300 O   0  0  0  0  0  0  0  0  0  0  0  0
  1  2  1  0
  2  3  1  0
  3  4  1  0
  4  5  1  1
  5  6  1  0
  6  7  2  0
  7  8  1  0
  8  9  2  0
  9 10  1  0
 10 11  1  0
 12 11  1  1
 12 13  1  0
 13 14  1  0
 14 15  2  0
 14 16  1  0
 16 17  1  0
 17 18  1  0
 18 19  2  0
 19 20  1  0
 20 21  2  0
 21 22  1  0
 22 23  1  0
 22 24  1  0
 22 25  1  0
 21 26  1  0
 26 27  2  0
 12 28  1  0
 28 29  2  0
 29 30  1  0
 30 31  2  0
 31 32  1  0
 32 33  2  0
  9 34  1  0
 34 35  2  0
  4 36  1  0
 36 37  2  0
 36 38  1  0
 35  6  1  0
 27 18  1  0
 33 28  1  0
M  END
$$$$
