SCZBXBBBMCBNSK-SIBCGJTDSA-N_2JKH_m4
     RDKit          3D

 29 31  0  0  0  0  0  0  0  0999 V2000
   -7.4380    7.0590   17.3330 N   0  0  0  0  0  0  0  0  0  0  0  0
   -6.7020    6.6610   18.3220 C   0  0  0  0  0  0  0  0  0  0  0  0
   -6.5990    5.3300   18.5770 N   0  0  0  0  0  0  0  0  0  0  0  0
   -5.9810    7.6790   19.1440 C   0  0  0  0  0  0  0  0  0  0  0  0
   -4.6910    8.1000   18.8120 C   0  0  0  0  0  0  0  0  0  0  0  0
   -4.0350    9.0470   19.6090 C   0  0  0  0  0  0  0  0  0  0  0  0
   -4.6580    9.5780   20.7470 C   0  0  0  0  0  0  0  0  0  0  0  0
   -3.9430   10.4970   21.6390 C   0  0  0  0  0  0  0  0  0  0  0  0
   -4.3470   11.7190   22.0360 C   0  0  0  0  0  0  0  0  0  0  0  0
   -3.4540   12.6740   22.7830 C   0  0  0  0  0  0  0  0  0  0  0  0
   -3.9930   13.1940   24.1220 C   0  0  0  0  0  0  0  0  0  0  0  0
   -4.6600   14.5900   24.0410 C   0  0  0  0  0  0  0  0  0  0  0  0
   -5.9140   14.6520   23.1640 C   0  0  0  0  0  0  0  0  0  0  0  0
   -5.7100   14.8190   21.6570 C   0  0  0  0  0  0  0  0  0  0  0  0
   -5.6710   13.5340   20.8620 C   0  0  0  0  0  0  0  0  0  0  0  0
   -5.6780   13.5710   19.5130 C   0  0  0  0  0  0  0  0  0  0  0  0
   -5.8330   12.4570   18.5740 C   0  0  0  0  0  0  0  0  0  0  0  0
   -4.7300   12.1210   17.7780 C   0  0  0  0  0  0  0  0  0  0  0  0
   -4.8320   11.1170   16.8140 C   0  0  0  0  0  0  0  0  0  0  0  0
   -6.0410   10.4420   16.6330 C   0  0  0  0  0  0  0  0  0  0  0  0
   -6.1690    9.4670   15.5160 C   0  0  0  0  0  0  0  0  0  0  0  0
   -5.3230    8.4880   15.4340 N   0  0  0  0  0  0  0  0  0  0  0  0
   -7.1560    9.6020   14.5900 N   0  0  0  0  0  0  0  0  0  0  0  0
   -7.1280   10.7290   17.4630 C   0  0  0  0  0  0  0  0  0  0  0  0
   -7.0150   11.7210   18.4420 C   0  0  0  0  0  0  0  0  0  0  0  0
   -5.6780   12.2560   21.6450 C   0  0  0  0  0  0  0  0  0  0  0  0
   -6.6890   11.5890   21.8350 O   0  0  0  0  0  0  0  0  0  0  0  0
   -5.9410    9.1420   21.0860 C   0  0  0  0  0  0  0  0  0  0  0  0
   -6.5990    8.2000   20.2880 C   0  0  0  0  0  0  0  0  0  0  0  0
  1  2  2  3
  2  3  1  0
  2  4  1  0
  4  5  2  0
  5  6  1  0
  6  7  2  0
  7  8  1  0
  8  9  2  0
  9 10  1  0
 10 11  1  0
 11 12  1  0
 12 13  1  0
 13 14  1  0
 14 15  1  0
 15 16  2  0
 16 17  1  0
 17 18  2  0
 18 19  1  0
 19 20  2  0
 20 21  1  0
 21 22  2  3
 21 23  1  0
 20 24  1  0
 24 25  2  0
 15 26  1  0
 26 27  2  0
  7 28  1  0
 28 29  2  0
 29  4  1  0
 26  9  1  0
 25 17  1  0
M  END
$$$$
