SDHJEPJJARZDKU-UHFFFAOYSA-N_4BDS_m2
     RDKit          3D

 33 36  0  0  0  0  0  0  0  0999 V2000
  134.3930  118.5610   37.9580 C   0  0  0  0  0  0  0  0  0  0  0  0
  134.3820  117.4740   36.9770 N   0  0  0  0  0  0  0  0  0  0  0  0
  133.8170  117.9460   35.7150 C   0  0  0  0  0  0  0  0  0  0  0  0
  133.7600  116.2480   37.5180 C   0  0  2  0  0  0  0  0  0  0  0  0
  134.0310  116.1220   39.0320 C   0  0  0  0  0  0  0  0  0  0  0  0
  133.3110  114.9120   39.6280 C   0  0  0  0  0  0  0  0  0  0  0  0
  133.6720  113.5950   38.9230 C   0  0  2  0  0  0  0  0  0  0  0  0
  135.1180  113.1160   39.1930 C   0  0  0  0  0  0  0  0  0  0  0  0
  135.2540  111.6490   39.6410 C   0  0  0  0  0  0  0  0  0  0  0  0
  136.0880  111.4330   40.8350 N   0  0  0  0  0  0  0  0  0  0  0  0
  136.9800  112.5690   41.1430 C   0  0  0  0  0  0  0  0  0  0  0  0
  138.3970  112.5040   40.5490 C   0  0  0  0  0  0  0  0  0  0  0  0
  138.6820  113.6660   39.5930 C   0  0  0  0  0  0  0  0  0  0  0  0
  138.8700  114.9800   40.2880 C   0  0  0  0  0  0  0  0  0  0  0  0
  138.0210  116.0680   40.2110 C   0  0  0  0  0  0  0  0  0  0  0  0
  138.5340  117.0710   40.9870 N   0  0  0  0  0  0  0  0  0  0  0  0
  139.7070  116.6650   41.5780 C   0  0  0  0  0  0  0  0  0  0  0  0
  140.5680  117.3530   42.4420 C   0  0  0  0  0  0  0  0  0  0  0  0
  141.7070  116.6800   42.8930 C   0  0  0  0  0  0  0  0  0  0  0  0
  141.9730  115.3740   42.4950 C   0  0  0  0  0  0  0  0  0  0  0  0
  141.1020  114.7000   41.6300 C   0  0  0  0  0  0  0  0  0  0  0  0
  139.9440  115.3540   41.1590 C   0  0  0  0  0  0  0  0  0  0  0  0
  135.2790  111.0400   42.0030 C   0  0  0  0  0  0  0  0  0  0  0  0
  135.4970  111.9930   43.1910 C   0  0  0  0  0  0  0  0  0  0  0  0
  134.3100  112.9350   43.5150 C   0  0  0  0  0  0  0  0  0  0  0  0
  133.1590  112.7320   42.5150 C   0  0  0  0  0  0  0  0  0  0  0  0
  131.7800  113.1150   43.0510 C   0  0  0  0  0  0  0  0  0  0  0  0
  131.4820  114.6030   42.9050 C   0  0  0  0  0  0  0  0  0  0  0  0
  132.4740  115.5310   43.6390 C   0  0  0  0  0  0  0  0  0  0  0  0
  133.9020  115.4790   43.0960 C   0  0  0  0  0  0  0  0  0  0  0  0
  134.7530  114.3900   43.7490 C   0  0  0  0  0  0  0  0  0  0  0  0
  133.4160  113.7310   37.4120 C   0  0  0  0  0  0  0  0  0  0  0  0
  134.1190  114.9390   36.7860 C   0  0  0  0  0  0  0  0  0  0  0  0
  1  2  1  0
  2  3  1  0
  4  2  1  1
  4  5  1  0
  5  6  1  0
  6  7  1  0
  7  8  1  1
  8  9  1  0
  9 10  1  0
 10 11  1  0
 11 12  1  0
 12 13  1  0
 13 14  1  0
 14 15  2  0
 15 16  1  0
 16 17  1  0
 17 18  2  0
 18 19  1  0
 19 20  2  0
 20 21  1  0
 21 22  2  0
 10 23  1  0
 23 24  1  0
 24 25  1  0
 25 26  1  0
 26 27  1  0
 27 28  1  0
 28 29  1  0
 29 30  1  0
 30 31  1  0
  7 32  1  0
 32 33  1  0
 33  4  1  0
 22 14  1  0
 31 25  1  0
 22 17  1  0
M  END
$$$$
