SINXKRJKXKMFBZ-AYDFFVQHSA-N_6N7A_m1
     RDKit          3D

 27 30  0  0  0  0  0  0  0  0999 V2000
    3.5620  -17.8360   17.9830 C   0  0  0  0  0  0  0  0  0  0  0  0
    2.7730  -18.4960   19.1120 C   0  0  2  0  0  0  0  0  0  0  0  0
    1.4970  -17.8150   19.1910 O   0  0  0  0  0  0  0  0  0  0  0  0
    1.4550  -17.0580   20.4040 C   0  0  0  0  0  0  0  0  0  0  0  0
    2.8630  -17.0300   20.9540 C   0  0  0  0  0  0  0  0  0  0  0  0
    3.4030  -18.3790   20.5140 C   0  0  2  0  0  0  0  0  0  0  0  0
    4.8900  -18.4970   20.5490 N   0  0  0  0  0  0  0  0  0  0  0  0
    5.6390  -17.2560   20.8420 C   0  0  0  0  0  0  0  0  0  0  0  0
    5.5450  -19.9270   21.2170 S   0  0  0  0  0  0  0  0  0  0  0  0
    6.7530  -20.2540   20.4900 O   0  0  0  0  0  0  0  0  0  0  0  0
    5.5600  -19.7680   22.6540 O   0  0  0  0  0  0  0  0  0  0  0  0
    4.2980  -21.1480   20.7950 C   0  0  0  0  0  0  0  0  0  0  0  0
    4.9430  -22.5100   20.6060 C   0  0  1  0  0  0  0  0  0  0  0  0
    5.0720  -23.4220   21.8540 C   0  0  0  0  0  0  0  0  0  0  0  0
    4.7750  -24.6290   20.9200 C   0  0  1  0  0  0  0  0  0  0  0  0
    3.9330  -25.6310   21.5120 N   0  0  0  0  0  0  0  0  0  0  0  0
    2.4800  -25.5120   21.4350 C   0  0  0  0  0  0  0  0  0  0  0  0
    4.3530  -26.8580   22.0740 C   0  0  0  0  0  0  0  0  0  0  0  0
    3.6120  -27.9750   21.8120 N   0  0  0  0  0  0  0  0  0  0  0  0
    3.9640  -29.1530   22.3610 C   0  0  0  0  0  0  0  0  0  0  0  0
    5.0070  -29.4110   23.1630 N   0  0  0  0  0  0  0  0  0  0  0  0
    5.7350  -28.3080   23.3760 C   0  0  0  0  0  0  0  0  0  0  0  0
    6.8690  -28.2810   24.1390 N   0  0  0  0  0  0  0  0  0  0  0  0
    7.4050  -27.0210   24.1290 C   0  0  0  0  0  0  0  0  0  0  0  0
    6.5840  -26.2290   23.3540 C   0  0  0  0  0  0  0  0  0  0  0  0
    5.4990  -27.0300   22.8860 C   0  0  0  0  0  0  0  0  0  0  0  0
    4.0180  -23.6060   20.0250 C   0  0  0  0  0  0  0  0  0  0  0  0
  2  1  1  6
  2  3  1  0
  3  4  1  0
  4  5  1  0
  5  6  1  0
  6  7  1  6
  7  8  1  0
  7  9  1  0
  9 10  2  0
  9 11  2  0
  9 12  1  0
 13 12  1  1
 13 14  1  0
 14 15  1  0
 15 16  1  1
 16 17  1  0
 16 18  1  0
 18 19  2  0
 19 20  1  0
 20 21  2  0
 21 22  1  0
 22 23  1  0
 23 24  1  0
 24 25  2  0
 25 26  1  0
 15 27  1  0
  6  2  1  0
 27 13  1  0
 26 18  1  0
 26 22  2  0
M  END
$$$$
