SKBWQUPLWQUWPH-WGSAOQKQSA-N_3POZ_m2
     RDKit          3D

 41 47  0  0  0  0  0  0  0  0999 V2000
   27.0970   31.9010   19.2830 C   0  0  0  0  0  0  0  0  0  0  0  0
   26.7930   33.1500   19.9800 N   0  0  0  0  0  0  0  0  0  0  0  0
   25.4920   33.0870   20.6760 C   0  0  0  0  0  0  0  0  0  0  0  0
   24.2500   33.1630   19.7520 C   0  0  0  0  0  0  0  0  0  0  0  0
   24.2800   34.3320   18.8490 N   0  0  0  0  0  0  0  0  0  0  0  0
   23.0590   34.4460   18.0310 C   0  0  2  0  0  0  0  0  0  0  0  0
   21.9290   35.2970   18.6450 C   0  0  0  0  0  0  0  0  0  0  0  0
   20.7250   35.3930   17.7040 C   0  0  0  0  0  0  0  0  0  0  0  0
   20.1930   34.0020   17.3310 C   0  0  1  0  0  0  0  0  0  0  0  0
   19.0050   34.1090   16.4900 N   0  0  0  0  0  0  0  0  0  0  0  0
   19.0710   33.8900   15.1600 N   0  0  0  0  0  0  0  0  0  0  0  0
   17.8040   34.0470   14.7370 C   0  0  0  0  0  0  0  0  0  0  0  0
   17.4640   33.7980   13.3410 C   0  0  0  0  0  0  0  0  0  0  0  0
   18.1630   34.4380   12.3130 C   0  0  0  0  0  0  0  0  0  0  0  0
   17.8280   34.2020   10.9730 C   0  0  0  0  0  0  0  0  0  0  0  0
   16.7890   33.3250   10.6260 C   0  0  0  0  0  0  0  0  0  0  0  0
   16.4680   33.1850    9.2650 N   0  0  0  0  0  0  0  0  0  0  0  0
   16.8410   32.1990    8.4340 C   0  0  0  0  0  0  0  0  0  0  0  0
   17.9410   32.0190    7.7350 N   0  0  0  0  0  0  0  0  0  0  0  0
   17.7640   30.8010    7.1360 C   0  0  0  0  0  0  0  0  0  0  0  0
   18.5960   30.0680    6.2770 C   0  0  0  0  0  0  0  0  0  0  0  0
   18.1490   28.8180    5.8230 C   0  0  0  0  0  0  0  0  0  0  0  0
   16.9020   28.3130    6.2140 C   0  0  0  0  0  0  0  0  0  0  0  0
   16.0650   29.0400    7.0710 C   0  0  0  0  0  0  0  0  0  0  0  0
   14.5430   28.4230    7.5560 Cl  0  0  0  0  0  0  0  0  0  0  0  0
   16.5400   30.2700    7.5060 C   0  0  0  0  0  0  0  0  0  0  0  0
   15.9460   31.1650    8.3510 O   0  0  0  0  0  0  0  0  0  0  0  0
   16.0930   32.7030   11.6760 C   0  0  0  0  0  0  0  0  0  0  0  0
   15.1350   31.8010   11.4240 F   0  0  0  0  0  0  0  0  0  0  0  0
   16.4200   32.9310   13.0130 C   0  0  0  0  0  0  0  0  0  0  0  0
   16.9440   34.4580   15.7980 C   0  0  0  0  0  0  0  0  0  0  0  0
   15.6100   34.8450   15.9860 C   0  0  0  0  0  0  0  0  0  0  0  0
   14.6810   34.9770   14.9820 N   0  0  0  0  0  0  0  0  0  0  0  0
   15.1980   35.1520   17.2350 N   0  0  0  0  0  0  0  0  0  0  0  0
   16.0870   35.0880   18.2450 C   0  0  0  0  0  0  0  0  0  0  0  0
   17.3870   34.7590   18.1820 N   0  0  0  0  0  0  0  0  0  0  0  0
   17.7530   34.4580   16.9220 C   0  0  0  0  0  0  0  0  0  0  0  0
   21.3130   33.1460   16.7110 C   0  0  0  0  0  0  0  0  0  0  0  0
   22.5270   33.0500   17.6390 C   0  0  0  0  0  0  0  0  0  0  0  0
   25.5550   34.3700   18.1100 C   0  0  0  0  0  0  0  0  0  0  0  0
   26.7810   34.3010   19.0540 C   0  0  0  0  0  0  0  0  0  0  0  0
  1  2  1  0
  2  3  1  0
  3  4  1  0
  4  5  1  0
  6  5  1  6
  6  7  1  0
  7  8  1  0
  8  9  1  0
  9 10  1  1
 10 11  1  0
 11 12  2  0
 12 13  1  0
 13 14  2  0
 14 15  1  0
 15 16  2  0
 16 17  1  0
 17 18  1  0
 18 19  2  0
 19 20  1  0
 20 21  2  0
 21 22  1  0
 22 23  2  0
 23 24  1  0
 24 25  1  0
 24 26  2  0
 26 27  1  0
 16 28  1  0
 28 29  1  0
 28 30  2  0
 12 31  1  0
 31 32  2  0
 32 33  1  0
 32 34  1  0
 34 35  2  0
 35 36  1  0
 36 37  2  0
  9 38  1  0
 38 39  1  0
  5 40  1  0
 40 41  1  0
 41  2  1  0
 39  6  1  0
 37 10  1  0
 30 13  1  0
 37 31  1  0
 27 18  1  0
 26 20  1  0
M  END
$$$$
