SMGUXZWVZUOLCO-UHFFFAOYSA-N_9V8H_m8
     RDKit          3D

 31 33  0  0  0  0  0  0  0  0999 V2000
  -10.5200  -10.5120  -31.2660 C   0  0  0  0  0  0  0  0  0  0  0  0
   -9.1890   -9.9700  -31.7700 C   0  0  0  0  0  0  0  0  0  0  0  0
   -8.6780   -8.7770  -30.9450 C   0  0  1  0  0  0  0  0  0  0  0  0
   -7.9940   -9.2680  -29.6580 C   0  0  0  0  0  0  0  0  0  0  0  0
   -8.6930   -8.8010  -28.4010 C   0  0  0  0  0  0  0  0  0  0  0  0
   -9.9450   -8.1890  -28.4660 C   0  0  0  0  0  0  0  0  0  0  0  0
  -10.5940   -7.7720  -27.3000 C   0  0  0  0  0  0  0  0  0  0  0  0
  -10.0080   -7.9580  -26.0400 C   0  0  0  0  0  0  0  0  0  0  0  0
  -10.6060   -7.5660  -24.8680 O   0  0  0  0  0  0  0  0  0  0  0  0
  -11.6540   -8.3770  -24.3460 C   0  0  0  0  0  0  0  0  0  0  0  0
   -8.7420   -8.5780  -25.9600 C   0  0  0  0  0  0  0  0  0  0  0  0
   -7.9930   -8.8470  -24.6850 C   0  0  0  0  0  0  0  0  0  0  0  0
   -7.3190   -9.8660  -24.5620 O   0  0  0  0  0  0  0  0  0  0  0  0
   -8.0950   -7.9200  -23.6780 N   0  0  0  0  0  0  0  0  0  0  0  0
   -7.4200   -8.0840  -22.4170 C   0  0  0  0  0  0  0  0  0  0  0  0
   -8.3620   -7.8250  -21.2710 C   0  0  0  0  0  0  0  0  0  0  0  0
   -9.5270   -8.5870  -21.1220 C   0  0  0  0  0  0  0  0  0  0  0  0
  -10.3830   -8.3680  -20.0380 C   0  0  0  0  0  0  0  0  0  0  0  0
  -10.0960   -7.3890  -19.0720 C   0  0  0  0  0  0  0  0  0  0  0  0
  -10.9990   -7.1590  -17.9320 C   0  0  0  0  0  0  0  0  0  0  0  0
  -11.9530   -8.1200  -17.5570 C   0  0  0  0  0  0  0  0  0  0  0  0
  -12.8100   -7.9020  -16.4750 C   0  0  0  0  0  0  0  0  0  0  0  0
  -12.7270   -6.7180  -15.7470 C   0  0  0  0  0  0  0  0  0  0  0  0
  -11.7890   -5.7520  -16.1010 C   0  0  0  0  0  0  0  0  0  0  0  0
  -10.9320   -5.9720  -17.1840 C   0  0  0  0  0  0  0  0  0  0  0  0
   -8.9190   -6.6390  -19.2260 C   0  0  0  0  0  0  0  0  0  0  0  0
   -8.0600   -6.8570  -20.3090 C   0  0  0  0  0  0  0  0  0  0  0  0
   -8.1030   -8.9920  -27.1460 C   0  0  0  0  0  0  0  0  0  0  0  0
   -7.6910   -7.9770  -31.7640 C   0  0  0  0  0  0  0  0  0  0  0  0
   -6.6360   -8.3740  -32.2300 O   0  0  0  0  0  0  0  0  0  0  0  0
   -8.1020   -6.7130  -31.9820 O   0  0  0  0  0  0  0  0  0  0  0  0
  1  2  1  0
  3  2  1  6
  3  4  1  0
  4  5  1  0
  5  6  2  0
  6  7  1  0
  7  8  2  0
  8  9  1  0
  9 10  1  0
  8 11  1  0
 11 12  1  0
 12 13  2  0
 12 14  1  0
 14 15  1  0
 15 16  1  0
 16 17  2  0
 17 18  1  0
 18 19  2  0
 19 20  1  0
 20 21  2  0
 21 22  1  0
 22 23  2  0
 23 24  1  0
 24 25  2  0
 19 26  1  0
 26 27  2  0
 11 28  2  0
  3 29  1  0
 29 30  2  0
 29 31  1  0
 28  5  1  0
 27 16  1  0
 25 20  1  0
M  END
$$$$
