SNMFWHCQPZSLEZ-NHOMFQCRSA-N_5U3Q_m6
     RDKit          3D

 31 33  0  0  0  0  0  0  0  0999 V2000
   36.3590  -37.4920  104.4560 C   0  0  0  0  0  0  0  0  0  0  0  0
   35.8970  -36.7200  103.2360 C   0  0  0  0  0  0  0  0  0  0  0  0
   36.5610  -37.2560  102.0940 O   0  0  0  0  0  0  0  0  0  0  0  0
   37.7940  -36.5870  101.8010 C   0  0  1  0  0  0  0  0  0  0  0  0
   38.6570  -37.5380  100.9560 C   0  0  0  0  0  0  0  0  0  0  0  0
   39.7060  -38.2460  101.7870 C   0  0  0  0  0  0  0  0  0  0  0  0
   41.0190  -38.3670  101.3220 C   0  0  0  0  0  0  0  0  0  0  0  0
   41.9790  -39.0340  102.0850 C   0  0  0  0  0  0  0  0  0  0  0  0
   41.6460  -39.5930  103.3200 C   0  0  0  0  0  0  0  0  0  0  0  0
   42.6810  -40.2160  103.9620 O   0  0  0  0  0  0  0  0  0  0  0  0
   43.2620  -39.5350  105.0710 C   0  0  0  0  0  0  0  0  0  0  0  0
   42.1780  -39.3470  106.0950 C   0  0  0  0  0  0  0  0  0  0  0  0
   42.3060  -39.1960  107.4320 C   0  0  0  0  0  0  0  0  0  0  0  0
   41.0630  -38.9690  108.2170 C   0  0  0  0  0  0  0  0  0  0  0  0
   39.8310  -38.8700  107.5580 C   0  0  0  0  0  0  0  0  0  0  0  0
   38.6500  -38.6790  108.2820 C   0  0  0  0  0  0  0  0  0  0  0  0
   38.6910  -38.5920  109.6720 C   0  0  0  0  0  0  0  0  0  0  0  0
   39.9080  -38.6990  110.3400 C   0  0  0  0  0  0  0  0  0  0  0  0
   41.0890  -38.8910  109.6180 C   0  0  0  0  0  0  0  0  0  0  0  0
   43.6400  -39.2830  108.0730 C   0  0  0  0  0  0  0  0  0  0  0  0
   44.3940  -38.1260  108.3260 C   0  0  0  0  0  0  0  0  0  0  0  0
   45.6550  -38.2230  108.9160 C   0  0  0  0  0  0  0  0  0  0  0  0
   46.1630  -39.4750  109.2440 C   0  0  0  0  0  0  0  0  0  0  0  0
   47.3740  -39.5670  109.8100 F   0  0  0  0  0  0  0  0  0  0  0  0
   45.4370  -40.6320  108.9900 C   0  0  0  0  0  0  0  0  0  0  0  0
   44.1740  -40.5380  108.4010 C   0  0  0  0  0  0  0  0  0  0  0  0
   40.3360  -39.4840  103.7850 C   0  0  0  0  0  0  0  0  0  0  0  0
   39.3710  -38.8150  103.0220 C   0  0  0  0  0  0  0  0  0  0  0  0
   37.5910  -35.2860  101.0170 C   0  0  0  0  0  0  0  0  0  0  0  0
   36.7510  -35.0550  100.1620 O   0  0  0  0  0  0  0  0  0  0  0  0
   38.4470  -34.3090  101.3910 O   0  0  0  0  0  0  0  0  0  0  0  0
  1  2  1  0
  2  3  1  0
  3  4  1  0
  4  5  1  6
  5  6  1  0
  6  7  2  0
  7  8  1  0
  8  9  2  0
  9 10  1  0
 10 11  1  0
 11 12  1  0
 12 13  2  0
 13 14  1  0
 14 15  2  0
 15 16  1  0
 16 17  2  0
 17 18  1  0
 18 19  2  0
 13 20  1  0
 20 21  2  0
 21 22  1  0
 22 23  2  0
 23 24  1  0
 23 25  1  0
 25 26  2  0
  9 27  1  0
 27 28  2  0
  4 29  1  0
 29 30  2  0
 29 31  1  0
 28  6  1  0
 19 14  1  0
 26 20  1  0
M  END
$$$$
