SOIIHESTBYNJRH-PMPSAXMXSA-N_2JKH_m7
     RDKit          3D

 31 33  0  0  0  0  0  0  0  0999 V2000
   -5.2920   11.9610   25.1900 N   0  0  0  0  0  0  0  0  0  0  0  0
   -4.1390   12.5060   25.3450 C   0  0  0  0  0  0  0  0  0  0  0  0
   -4.0110   13.8300   25.2120 N   0  0  0  0  0  0  0  0  0  0  0  0
   -2.9770   11.8770   25.6120 N   0  0  0  0  0  0  0  0  0  0  0  0
   -2.7180   10.4550   25.5160 C   0  0  0  0  0  0  0  0  0  0  0  0
   -1.3320   10.0850   26.0460 C   0  0  0  0  0  0  0  0  0  0  0  0
   -0.2000   10.1120   25.0200 C   0  0  0  0  0  0  0  0  0  0  0  0
   -0.6470   10.1120   23.6430 N   0  0  0  0  0  0  0  0  0  0  0  0
   -0.6310   11.2410   22.8540 C   0  0  0  0  0  0  0  0  0  0  0  0
   -0.1200   12.2980   23.2230 O   0  0  0  0  0  0  0  0  0  0  0  0
   -1.2810   11.0530   21.4660 C   0  0  2  0  0  0  0  0  0  0  0  0
   -0.4190   11.6390   20.3560 C   0  0  0  0  0  0  0  0  0  0  0  0
   -1.0430   13.3220   20.0550 S   0  0  0  0  0  0  0  0  0  0  0  0
   -2.5400   13.1010   21.0550 C   0  0  1  0  0  0  0  0  0  0  0  0
   -3.8030   13.5210   20.3260 C   0  0  0  0  0  0  0  0  0  0  0  0
   -4.9800   13.2710   21.2660 C   0  0  0  0  0  0  0  0  0  0  0  0
   -5.0590   11.8150   21.7300 C   0  0  1  0  0  0  0  0  0  0  0  0
   -5.8070   11.0370   20.7170 N   0  0  0  0  0  0  0  0  0  0  0  0
   -7.4010   10.6150   21.0370 S   0  0  0  0  0  0  0  0  0  0  0  0
   -8.1310   11.0580   19.8690 O   0  0  0  0  0  0  0  0  0  0  0  0
   -7.6960   11.1270   22.3590 O   0  0  0  0  0  0  0  0  0  0  0  0
   -7.3640    8.8120   21.0680 C   0  0  0  0  0  0  0  0  0  0  0  0
   -6.6540    8.3060   19.8370 C   0  0  0  0  0  0  0  0  0  0  0  0
   -5.2730    8.0610   19.8560 C   0  0  0  0  0  0  0  0  0  0  0  0
   -4.6230    7.5920   18.7120 C   0  0  0  0  0  0  0  0  0  0  0  0
   -5.3460    7.3550   17.5450 C   0  0  0  0  0  0  0  0  0  0  0  0
   -6.7170    7.5940   17.5140 C   0  0  0  0  0  0  0  0  0  0  0  0
   -7.3690    8.0720   18.6520 C   0  0  0  0  0  0  0  0  0  0  0  0
   -3.7080   11.0940   21.9140 C   0  0  0  0  0  0  0  0  0  0  0  0
   -3.6700    9.9500   22.3750 O   0  0  0  0  0  0  0  0  0  0  0  0
   -2.5850   11.7030   21.4110 N   0  0  0  0  0  0  0  0  0  0  0  0
  1  2  2  3
  2  3  1  0
  2  4  1  0
  4  5  1  0
  5  6  1  0
  6  7  1  0
  7  8  1  0
  8  9  1  0
  9 10  2  0
 11  9  1  1
 11 12  1  0
 12 13  1  0
 13 14  1  0
 14 15  1  6
 15 16  1  0
 16 17  1  0
 17 18  1  6
 18 19  1  0
 19 20  2  0
 19 21  2  0
 19 22  1  0
 22 23  1  0
 23 24  2  0
 24 25  1  0
 25 26  2  0
 26 27  1  0
 27 28  2  0
 17 29  1  0
 29 30  2  0
 29 31  1  0
 31 11  1  0
 31 14  1  0
 28 23  1  0
M  END
$$$$
