SPDLQTAUFKKTCR-PMOLBWCYSA-N_3RCD_m6
     RDKit          3D

 41 47  0  0  0  0  0  0  0  0999 V2000
    9.8000    2.2930   32.3100 C   0  0  0  0  0  0  0  0  0  0  0  0
   10.5690    1.1960   32.2760 C   0  0  0  0  0  0  0  0  0  0  0  0
   11.0890    0.6880   30.9800 C   0  0  0  0  0  0  0  0  0  0  0  0
   10.9410   -0.4910   30.6640 O   0  0  0  0  0  0  0  0  0  0  0  0
   11.7180    1.5970   30.1680 N   0  0  0  0  0  0  0  0  0  0  0  0
   13.0740    2.0430   30.4160 C   0  0  2  0  0  0  0  0  0  0  0  0
   13.0810    3.4670   29.8550 C   0  0  0  0  0  0  0  0  0  0  0  0
   11.9200    3.4990   28.8530 C   0  0  0  0  0  0  0  0  0  0  0  0
   11.3780    2.0700   28.8380 C   0  0  1  0  0  0  0  0  0  0  0  0
   12.0970    1.1540   27.8340 C   0  0  0  0  0  0  0  0  0  0  0  0
   13.5930    0.8830   28.1650 C   0  0  1  0  0  0  0  0  0  0  0  0
   14.5210    1.5440   27.2460 N   0  0  0  0  0  0  0  0  0  0  0  0
   14.2330    2.7490   26.7160 N   0  0  0  0  0  0  0  0  0  0  0  0
   15.2950    3.0440   25.9520 C   0  0  0  0  0  0  0  0  0  0  0  0
   15.3340    4.3160   25.2420 C   0  0  0  0  0  0  0  0  0  0  0  0
   15.5910    5.5070   25.9270 C   0  0  0  0  0  0  0  0  0  0  0  0
   15.6120    6.7130   25.2310 C   0  0  0  0  0  0  0  0  0  0  0  0
   15.8400    7.8410   25.9180 F   0  0  0  0  0  0  0  0  0  0  0  0
   15.3830    6.7560   23.8540 C   0  0  0  0  0  0  0  0  0  0  0  0
   15.3780    7.9520   23.1750 O   0  0  0  0  0  0  0  0  0  0  0  0
   16.6070    8.5580   23.0020 C   0  0  0  0  0  0  0  0  0  0  0  0
   16.6240    9.9540   23.0270 C   0  0  0  0  0  0  0  0  0  0  0  0
   17.8110   10.6690   22.8350 C   0  0  0  0  0  0  0  0  0  0  0  0
   18.9680    9.9180   22.6010 C   0  0  0  0  0  0  0  0  0  0  0  0
   18.9690    8.5250   22.5470 C   0  0  0  0  0  0  0  0  0  0  0  0
   17.7710    7.8230   22.7430 C   0  0  0  0  0  0  0  0  0  0  0  0
   20.2290    8.0410   22.2870 N   0  0  0  0  0  0  0  0  0  0  0  0
   20.9920    9.1050   22.1870 C   0  0  0  0  0  0  0  0  0  0  0  0
   20.2790   10.2570   22.3700 N   0  0  0  0  0  0  0  0  0  0  0  0
   20.8150   11.5920   22.3250 C   0  0  0  0  0  0  0  0  0  0  0  0
   15.0800    5.5720   23.1780 C   0  0  0  0  0  0  0  0  0  0  0  0
   14.7380    5.5660   21.4860 Cl  0  0  0  0  0  0  0  0  0  0  0  0
   15.0610    4.3560   23.8670 C   0  0  0  0  0  0  0  0  0  0  0  0
   16.2590    1.9920   25.9650 C   0  0  0  0  0  0  0  0  0  0  0  0
   17.4930    1.6800   25.3710 C   0  0  0  0  0  0  0  0  0  0  0  0
   18.2210    2.5320   24.3780 C   0  0  0  0  0  0  0  0  0  0  0  0
   18.0920    0.5060   25.7200 N   0  0  0  0  0  0  0  0  0  0  0  0
   17.4710   -0.3120   26.5920 C   0  0  0  0  0  0  0  0  0  0  0  0
   16.2860   -0.1220   27.1910 N   0  0  0  0  0  0  0  0  0  0  0  0
   15.7310    1.0490   26.8310 C   0  0  0  0  0  0  0  0  0  0  0  0
   14.0090    1.1030   29.6420 C   0  0  0  0  0  0  0  0  0  0  0  0
  1  2  2  0
  2  3  1  0
  3  4  2  0
  3  5  1  0
  5  6  1  0
  6  7  1  6
  7  8  1  0
  9  8  1  1
  9 10  1  0
 10 11  1  0
 11 12  1  6
 12 13  1  0
 13 14  2  0
 14 15  1  0
 15 16  2  0
 16 17  1  0
 17 18  1  0
 17 19  2  0
 19 20  1  0
 20 21  1  0
 21 22  2  0
 22 23  1  0
 23 24  2  0
 24 25  1  0
 25 26  2  0
 25 27  1  0
 27 28  2  0
 28 29  1  0
 29 30  1  0
 19 31  1  0
 31 32  1  0
 31 33  2  0
 14 34  1  0
 34 35  2  0
 35 36  1  0
 35 37  1  0
 37 38  2  0
 38 39  1  0
 39 40  2  0
 11 41  1  0
  9  5  1  0
 40 12  1  0
 41  6  1  0
 33 15  1  0
 40 34  1  0
 26 21  1  0
 29 24  1  0
M  END
$$$$
