SRUYMJRFVGLQDV-UHFFFAOYSA-N_3RCD_m6
     RDKit          3D

 44 50  0  0  0  0  0  0  0  0999 V2000
   11.9090    6.1830   26.6410 O   0  0  0  0  0  0  0  0  0  0  0  0
   11.8050    6.8070   25.5920 C   0  0  0  0  0  0  0  0  0  0  0  0
   12.8500    7.1000   24.7290 N   0  0  0  0  0  0  0  0  0  0  0  0
   14.2200    6.8090   24.9040 C   0  0  0  0  0  0  0  0  0  0  0  0
   15.2390    7.7570   24.8270 C   0  0  0  0  0  0  0  0  0  0  0  0
   16.5760    7.3780   24.9840 C   0  0  0  0  0  0  0  0  0  0  0  0
   16.9040    6.0460   25.2310 C   0  0  0  0  0  0  0  0  0  0  0  0
   15.8960    5.0840   25.3400 C   0  0  0  0  0  0  0  0  0  0  0  0
   16.1990    3.6870   25.6090 C   0  0  0  0  0  0  0  0  0  0  0  0
   17.4320    3.1440   25.2780 N   0  0  0  0  0  0  0  0  0  0  0  0
   17.3390    1.9200   25.7080 C   0  0  0  0  0  0  0  0  0  0  0  0
   18.4100    0.5530   25.7220 S   0  0  0  0  0  0  0  0  0  0  0  0
   17.1330   -0.3940   26.5010 C   0  0  0  0  0  0  0  0  0  0  0  0
   16.0090    0.3130   26.7070 C   0  0  0  0  0  0  0  0  0  0  0  0
   16.1320    1.6150   26.2620 N   0  0  0  0  0  0  0  0  0  0  0  0
   15.3440    2.7380   26.1840 C   0  0  0  0  0  0  0  0  0  0  0  0
   13.9540    2.7770   26.6080 C   0  0  0  0  0  0  0  0  0  0  0  0
   12.9100    2.6880   25.7180 C   0  0  0  0  0  0  0  0  0  0  0  0
   11.6620    2.7510   26.2790 C   0  0  0  0  0  0  0  0  0  0  0  0
   11.4500    2.8870   27.6010 N   0  0  0  0  0  0  0  0  0  0  0  0
   12.5270    2.9650   28.3980 C   0  0  0  0  0  0  0  0  0  0  0  0
   12.2480    3.0970   29.7540 N   0  0  0  0  0  0  0  0  0  0  0  0
   12.0310    2.1900   30.7990 C   0  0  0  0  0  0  0  0  0  0  0  0
   12.8890    2.0390   31.8880 C   0  0  0  0  0  0  0  0  0  0  0  0
   12.6200    1.0990   32.8820 C   0  0  0  0  0  0  0  0  0  0  0  0
   11.4840    0.2910   32.8000 C   0  0  0  0  0  0  0  0  0  0  0  0
   10.5930    0.4090   31.7260 C   0  0  0  0  0  0  0  0  0  0  0  0
    9.4320   -0.4120   31.6530 N   0  0  0  0  0  0  0  0  0  0  0  0
    8.0940    0.1220   31.7440 C   0  0  0  0  0  0  0  0  0  0  0  0
    7.2250   -1.0870   32.0210 C   0  0  0  0  0  0  0  0  0  0  0  0
    7.9490   -2.2060   31.3020 C   0  0  0  0  0  0  0  0  0  0  0  0
    9.3990   -1.7940   31.4040 C   0  0  0  0  0  0  0  0  0  0  0  0
   10.3210   -2.5760   31.2290 O   0  0  0  0  0  0  0  0  0  0  0  0
   10.8910    1.3620   30.7380 C   0  0  0  0  0  0  0  0  0  0  0  0
   13.7830    2.9050   27.9360 N   0  0  0  0  0  0  0  0  0  0  0  0
   14.5590    5.4710   25.1560 C   0  0  0  0  0  0  0  0  0  0  0  0
   10.4580    7.2900   25.1780 C   0  0  0  0  0  0  0  0  0  0  0  0
    9.8010    6.6850   24.1020 C   0  0  0  0  0  0  0  0  0  0  0  0
   10.3340    5.6430   23.4490 F   0  0  0  0  0  0  0  0  0  0  0  0
    8.5440    7.1280   23.6770 C   0  0  0  0  0  0  0  0  0  0  0  0
    7.9210    8.1910   24.3270 C   0  0  0  0  0  0  0  0  0  0  0  0
    8.5590    8.8040   25.4020 C   0  0  0  0  0  0  0  0  0  0  0  0
    9.8130    8.3520   25.8170 C   0  0  0  0  0  0  0  0  0  0  0  0
   10.3830    8.9760   26.8600 F   0  0  0  0  0  0  0  0  0  0  0  0
  1  2  2  0
  2  3  1  0
  3  4  1  0
  4  5  2  0
  5  6  1  0
  6  7  2  0
  7  8  1  0
  8  9  1  0
  9 10  1  0
 10 11  2  0
 11 12  1  0
 12 13  1  0
 13 14  2  0
 14 15  1  0
 15 16  1  0
 16 17  1  0
 17 18  2  0
 18 19  1  0
 19 20  2  0
 20 21  1  0
 21 22  1  0
 22 23  1  0
 23 24  2  0
 24 25  1  0
 25 26  2  0
 26 27  1  0
 27 28  1  0
 28 29  1  0
 29 30  1  0
 30 31  1  0
 31 32  1  0
 32 33  2  0
 27 34  2  0
 21 35  2  0
  8 36  2  0
  2 37  1  0
 37 38  2  0
 38 39  1  0
 38 40  1  0
 40 41  2  0
 41 42  1  0
 42 43  2  0
 43 44  1  0
 36  4  1  0
 43 37  1  0
 16  9  2  0
 35 17  1  0
 15 11  1  0
 34 23  1  0
 32 28  1  0
M  END
$$$$
