SSDFTYWIYVWCIE-KDURUIRLSA-N_3RCD_m7
     RDKit          3D

 34 38  0  0  0  0  0  0  0  0999 V2000
   22.0740    7.3580   24.3000 C   0  0  0  0  0  0  0  0  0  0  0  0
   20.8130    7.0720   23.9450 C   0  0  0  0  0  0  0  0  0  0  0  0
   20.4150    6.1180   22.8800 C   0  0  0  0  0  0  0  0  0  0  0  0
   20.9840    6.1400   21.7960 O   0  0  0  0  0  0  0  0  0  0  0  0
   19.3720    5.2860   23.1940 N   0  0  0  0  0  0  0  0  0  0  0  0
   18.9050    4.2530   22.2810 C   0  0  1  0  0  0  0  0  0  0  0  0
   18.6770    2.9310   23.0260 C   0  0  0  0  0  0  0  0  0  0  0  0
   17.4800    3.0010   23.9750 C   0  0  0  0  0  0  0  0  0  0  0  0
   16.2050    3.4470   23.2460 C   0  0  1  0  0  0  0  0  0  0  0  0
   15.0790    3.5410   24.1700 N   0  0  0  0  0  0  0  0  0  0  0  0
   15.1700    2.9960   25.4030 N   0  0  0  0  0  0  0  0  0  0  0  0
   13.9650    3.2270   25.9540 C   0  0  0  0  0  0  0  0  0  0  0  0
   13.6650    2.7300   27.2920 C   0  0  0  0  0  0  0  0  0  0  0  0
   13.0660    3.5750   28.2370 C   0  0  0  0  0  0  0  0  0  0  0  0
   12.7720    3.1030   29.5180 C   0  0  0  0  0  0  0  0  0  0  0  0
   13.0690    1.7820   29.8570 C   0  0  0  0  0  0  0  0  0  0  0  0
   12.7850    1.3920   31.1470 O   0  0  0  0  0  0  0  0  0  0  0  0
   11.4630    1.1680   31.4560 C   0  0  0  0  0  0  0  0  0  0  0  0
   10.9190   -0.0590   31.0810 C   0  0  0  0  0  0  0  0  0  0  0  0
    9.5920   -0.3560   31.3940 C   0  0  0  0  0  0  0  0  0  0  0  0
    8.8190    0.5710   32.0960 C   0  0  0  0  0  0  0  0  0  0  0  0
    9.3720    1.7880   32.4920 C   0  0  0  0  0  0  0  0  0  0  0  0
   10.6980    2.0880   32.1800 C   0  0  0  0  0  0  0  0  0  0  0  0
   13.6990    0.9430   28.9350 C   0  0  0  0  0  0  0  0  0  0  0  0
   13.9940    1.4170   27.6530 C   0  0  0  0  0  0  0  0  0  0  0  0
   13.1220    3.9720   25.0770 C   0  0  0  0  0  0  0  0  0  0  0  0
   11.8410    4.5390   25.0760 C   0  0  0  0  0  0  0  0  0  0  0  0
   10.9720    4.5240   26.1390 N   0  0  0  0  0  0  0  0  0  0  0  0
   11.4160    5.1710   23.9600 N   0  0  0  0  0  0  0  0  0  0  0  0
   12.2470    5.2470   22.9030 C   0  0  0  0  0  0  0  0  0  0  0  0
   13.4970    4.7660   22.7980 N   0  0  0  0  0  0  0  0  0  0  0  0
   13.8740    4.1390   23.9260 C   0  0  0  0  0  0  0  0  0  0  0  0
   16.4120    4.7600   22.4760 C   0  0  0  0  0  0  0  0  0  0  0  0
   17.6300    4.6980   21.5550 C   0  0  0  0  0  0  0  0  0  0  0  0
  1  2  2  0
  2  3  1  0
  3  4  2  0
  3  5  1  0
  6  5  1  1
  6  7  1  0
  7  8  1  0
  8  9  1  0
  9 10  1  1
 10 11  1  0
 11 12  2  0
 12 13  1  0
 13 14  2  0
 14 15  1  0
 15 16  2  0
 16 17  1  0
 17 18  1  0
 18 19  2  0
 19 20  1  0
 20 21  2  0
 21 22  1  0
 22 23  2  0
 16 24  1  0
 24 25  2  0
 12 26  1  0
 26 27  2  0
 27 28  1  0
 27 29  1  0
 29 30  2  0
 30 31  1  0
 31 32  2  0
  9 33  1  0
 33 34  1  0
 34  6  1  0
 32 10  1  0
 25 13  1  0
 32 26  1  0
 23 18  1  0
M  END
$$$$
