SSNRTALFAXFKNE-UHFFFAOYSA-N_3RCD_m1
     RDKit          3D

 23 25  0  0  0  0  0  0  0  0999 V2000
    9.7140   -3.2600   31.7510 F   0  0  0  0  0  0  0  0  0  0  0  0
    8.8360   -2.2530   31.8490 C   0  0  0  0  0  0  0  0  0  0  0  0
    7.5990   -2.4800   32.4400 C   0  0  0  0  0  0  0  0  0  0  0  0
    6.6910   -1.4300   32.5480 C   0  0  0  0  0  0  0  0  0  0  0  0
    7.0270   -0.1630   32.0640 C   0  0  0  0  0  0  0  0  0  0  0  0
    8.2720    0.0670   31.4530 C   0  0  0  0  0  0  0  0  0  0  0  0
    8.6610    1.4420   30.9600 C   0  0  0  0  0  0  0  0  0  0  0  0
    9.9330    1.8030   31.4970 O   0  0  0  0  0  0  0  0  0  0  0  0
   10.9950    1.8750   30.6380 C   0  0  0  0  0  0  0  0  0  0  0  0
   10.9050    2.2150   29.2880 C   0  0  0  0  0  0  0  0  0  0  0  0
   12.0580    2.2710   28.4940 C   0  0  0  0  0  0  0  0  0  0  0  0
   13.3270    1.9900   29.0200 C   0  0  0  0  0  0  0  0  0  0  0  0
   14.4390    2.1070   28.1790 N   0  0  0  0  0  0  0  0  0  0  0  0
   15.3660    1.2100   27.6500 C   0  0  0  0  0  0  0  0  0  0  0  0
   16.3730    1.5750   26.7800 C   0  0  0  0  0  0  0  0  0  0  0  0
   17.2020    0.5710   26.3320 C   0  0  0  0  0  0  0  0  0  0  0  0
   17.0710   -0.7140   26.6940 N   0  0  0  0  0  0  0  0  0  0  0  0
   16.0560   -0.9710   27.5260 C   0  0  0  0  0  0  0  0  0  0  0  0
   15.1870   -0.0720   28.0160 N   0  0  0  0  0  0  0  0  0  0  0  0
   13.4110    1.6540   30.3720 C   0  0  0  0  0  0  0  0  0  0  0  0
   12.2620    1.5960   31.1710 C   0  0  0  0  0  0  0  0  0  0  0  0
   12.4590    1.1550   32.8340 Cl  0  0  0  0  0  0  0  0  0  0  0  0
    9.1820   -0.9960   31.3620 C   0  0  0  0  0  0  0  0  0  0  0  0
  1  2  1  0
  2  3  2  0
  3  4  1  0
  4  5  2  0
  5  6  1  0
  6  7  1  0
  7  8  1  0
  8  9  1  0
  9 10  2  0
 10 11  1  0
 11 12  2  0
 12 13  1  0
 13 14  1  0
 14 15  2  0
 15 16  1  0
 16 17  2  0
 17 18  1  0
 18 19  2  0
 12 20  1  0
 20 21  2  0
 21 22  1  0
  6 23  2  0
 23  2  1  0
 21  9  1  0
 19 14  1  0
M  END
$$$$
