STUWGJZDJHPWGZ-LBPRGKRZSA-N_4L23_m4
     RDKit          3D

 30 32  0  0  0  0  0  0  0  0999 V2000
   30.7130   47.4350   39.2050 C   0  0  0  0  0  0  0  0  0  0  0  0
   32.0980   46.9040   39.0860 C   0  0  0  0  0  0  0  0  0  0  0  0
   32.6010   46.6740   37.8120 N   0  0  0  0  0  0  0  0  0  0  0  0
   33.8300   46.2230   37.8890 C   0  0  0  0  0  0  0  0  0  0  0  0
   34.5350   45.9290   36.7520 N   0  0  0  0  0  0  0  0  0  0  0  0
   35.7030   46.4940   36.3210 C   0  0  0  0  0  0  0  0  0  0  0  0
   36.3240   47.3860   36.8940 O   0  0  0  0  0  0  0  0  0  0  0  0
   36.1750   45.9890   35.1230 N   0  0  0  0  0  0  0  0  0  0  0  0
   36.9870   44.7970   34.9160 C   0  0  0  0  0  0  0  0  0  0  0  0
   37.1610   44.6880   33.4090 C   0  0  0  0  0  0  0  0  0  0  0  0
   37.0650   46.1360   32.9450 C   0  0  0  0  0  0  0  0  0  0  0  0
   35.9880   46.7200   33.8600 C   0  0  1  0  0  0  0  0  0  0  0  0
   34.5650   46.5240   33.2910 C   0  0  0  0  0  0  0  0  0  0  0  0
   34.2950   47.2170   32.1460 N   0  0  0  0  0  0  0  0  0  0  0  0
   33.7270   45.7620   33.7650 O   0  0  0  0  0  0  0  0  0  0  0  0
   34.4560   46.0410   39.4570 S   0  0  0  0  0  0  0  0  0  0  0  0
   32.9770   46.6100   40.1200 C   0  0  0  0  0  0  0  0  0  0  0  0
   32.8020   46.6980   41.5700 C   0  0  0  0  0  0  0  0  0  0  0  0
   33.7120   47.3900   42.3640 C   0  0  0  0  0  0  0  0  0  0  0  0
   33.4780   47.4490   43.7240 C   0  0  0  0  0  0  0  0  0  0  0  0
   32.4140   46.8760   44.3280 N   0  0  0  0  0  0  0  0  0  0  0  0
   31.5200   46.2040   43.5640 C   0  0  0  0  0  0  0  0  0  0  0  0
   30.3280   45.5580   44.2760 C   0  0  0  0  0  0  0  0  0  0  0  0
   29.6280   44.5610   43.3310 C   0  0  0  0  0  0  0  0  0  0  0  0
   30.7790   44.7730   45.5300 C   0  0  0  0  0  0  0  0  0  0  0  0
   29.3370   46.6370   44.7250 C   0  0  0  0  0  0  0  0  0  0  0  0
   28.2670   46.7260   43.8980 F   0  0  0  0  0  0  0  0  0  0  0  0
   29.9000   47.8640   44.7880 F   0  0  0  0  0  0  0  0  0  0  0  0
   28.8440   46.3640   45.9590 F   0  0  0  0  0  0  0  0  0  0  0  0
   31.6970   46.0960   42.1830 C   0  0  0  0  0  0  0  0  0  0  0  0
  1  2  1  0
  2  3  1  0
  3  4  2  0
  4  5  1  0
  5  6  1  0
  6  7  2  0
  6  8  1  0
  8  9  1  0
  9 10  1  0
 10 11  1  0
 11 12  1  0
 12 13  1  6
 13 14  1  0
 13 15  2  0
  4 16  1  0
 16 17  1  0
 17 18  1  0
 18 19  2  0
 19 20  1  0
 20 21  2  0
 21 22  1  0
 22 23  1  0
 23 24  1  0
 23 25  1  0
 23 26  1  0
 26 27  1  0
 26 28  1  0
 26 29  1  0
 22 30  2  0
 17  2  2  0
 30 18  1  0
 12  8  1  0
M  END
$$$$
