SWXWAHZCVHZSAQ-GASCZTMLSA-N_6N7A_m5
     RDKit          3D

 27 31  0  0  0  0  0  0  0  0999 V2000
    2.9440  -17.5920   21.6360 C   0  0  0  0  0  0  0  0  0  0  0  0
    3.0360  -18.0540   20.2570 N   0  0  0  0  0  0  0  0  0  0  0  0
    3.5360  -17.1230   19.3190 C   0  0  0  0  0  0  0  0  0  0  0  0
    4.7640  -16.5810   19.5650 N   0  0  0  0  0  0  0  0  0  0  0  0
    5.2810  -15.6750   18.7160 C   0  0  0  0  0  0  0  0  0  0  0  0
    4.7430  -15.2040   17.5850 N   0  0  0  0  0  0  0  0  0  0  0  0
    3.5520  -15.7720   17.3450 C   0  0  0  0  0  0  0  0  0  0  0  0
    2.7920  -15.5000   16.2410 N   0  0  0  0  0  0  0  0  0  0  0  0
    1.6480  -16.2520   16.2710 C   0  0  0  0  0  0  0  0  0  0  0  0
    1.6820  -17.0130   17.4220 C   0  0  0  0  0  0  0  0  0  0  0  0
    2.8880  -16.7110   18.1270 C   0  0  0  0  0  0  0  0  0  0  0  0
    3.0480  -19.4770   20.0150 C   0  0  2  0  0  0  0  0  0  0  0  0
    3.0510  -20.3400   21.3090 C   0  0  0  0  0  0  0  0  0  0  0  0
    4.0380  -21.2930   20.5880 C   0  0  2  0  0  0  0  0  0  0  0  0
    5.0770  -21.9370   21.4840 C   0  0  0  0  0  0  0  0  0  0  0  0
    5.8570  -23.3510   20.7050 S   0  0  0  0  0  0  0  0  0  0  0  0
    7.2930  -23.1710   20.7530 O   0  0  0  0  0  0  0  0  0  0  0  0
    5.1870  -23.5950   19.4450 O   0  0  0  0  0  0  0  0  0  0  0  0
    5.4740  -24.6380   21.7570 N   0  0  0  0  0  0  0  0  0  0  0  0
    4.5140  -25.6210   21.1560 C   0  0  0  0  0  0  0  0  0  0  0  0
    4.0120  -26.5910   22.2300 C   0  0  0  0  0  0  0  0  0  0  0  0
    5.1690  -27.2700   22.9300 C   0  0  0  0  0  0  0  0  0  0  0  0
    6.1890  -26.2890   23.4610 C   0  0  0  0  0  0  0  0  0  0  0  0
    6.6550  -25.3480   22.3460 C   0  0  0  0  0  0  0  0  0  0  0  0
    4.8960  -28.5280   23.7250 C   0  0  0  0  0  0  0  0  0  0  0  0
    5.6410  -28.6150   22.4200 C   0  0  0  0  0  0  0  0  0  0  0  0
    4.4630  -20.0590   19.7500 C   0  0  0  0  0  0  0  0  0  0  0  0
  1  2  1  0
  2  3  1  0
  3  4  2  0
  4  5  1  0
  5  6  2  0
  6  7  1  0
  7  8  1  0
  8  9  1  0
  9 10  2  0
 10 11  1  0
 12  2  1  6
 12 13  1  0
 13 14  1  0
 14 15  1  6
 15 16  1  0
 16 17  2  0
 16 18  2  0
 16 19  1  0
 19 20  1  0
 20 21  1  0
 21 22  1  0
 22 23  1  0
 23 24  1  0
 22 25  1  0
 25 26  1  0
 14 27  1  0
 11  3  1  0
 27 12  1  0
 11  7  2  0
 24 19  1  0
 26 22  1  0
M  END
$$$$
