SWXWAHZCVHZSAQ-GASCZTMLSA-N_3LXP_m7
     RDKit          3D

 27 31  0  0  0  0  0  0  0  0999 V2000
    0.2340   24.1290  -25.2880 C   0  0  0  0  0  0  0  0  0  0  0  0
   -0.2210   22.7970  -24.9100 N   0  0  0  0  0  0  0  0  0  0  0  0
    0.3400   22.2580  -23.7310 C   0  0  0  0  0  0  0  0  0  0  0  0
    0.1900   22.9750  -22.5780 N   0  0  0  0  0  0  0  0  0  0  0  0
    0.7200   22.5190  -21.4290 C   0  0  0  0  0  0  0  0  0  0  0  0
    1.4080   21.3870  -21.2310 N   0  0  0  0  0  0  0  0  0  0  0  0
    1.5170   20.6830  -22.3670 C   0  0  0  0  0  0  0  0  0  0  0  0
    2.1430   19.4700  -22.4500 N   0  0  0  0  0  0  0  0  0  0  0  0
    2.0670   18.9970  -23.7320 C   0  0  0  0  0  0  0  0  0  0  0  0
    1.3820   19.9340  -24.4790 C   0  0  0  0  0  0  0  0  0  0  0  0
    1.0320   21.0240  -23.6240 C   0  0  0  0  0  0  0  0  0  0  0  0
   -1.4680   22.3220  -25.4590 C   0  0  2  0  0  0  0  0  0  0  0  0
   -1.3190   21.0850  -26.3910 C   0  0  0  0  0  0  0  0  0  0  0  0
   -2.4020   21.7260  -27.2970 C   0  0  2  0  0  0  0  0  0  0  0  0
   -2.2250   21.4760  -28.7820 C   0  0  0  0  0  0  0  0  0  0  0  0
   -3.7850   21.1480  -29.6020 S   0  0  0  0  0  0  0  0  0  0  0  0
   -4.8490   21.2460  -28.6250 O   0  0  0  0  0  0  0  0  0  0  0  0
   -3.6270   19.9520  -30.4010 O   0  0  0  0  0  0  0  0  0  0  0  0
   -3.9530   22.4700  -30.6670 N   0  0  0  0  0  0  0  0  0  0  0  0
   -5.1860   22.3860  -31.5150 C   0  0  0  0  0  0  0  0  0  0  0  0
   -5.1410   23.4470  -32.6190 C   0  0  0  0  0  0  0  0  0  0  0  0
   -4.9370   24.8270  -32.0340 C   0  0  0  0  0  0  0  0  0  0  0  0
   -3.7460   24.8990  -31.1050 C   0  0  0  0  0  0  0  0  0  0  0  0
   -3.8470   23.8190  -30.0240 C   0  0  0  0  0  0  0  0  0  0  0  0
   -5.2560   26.0320  -32.8930 C   0  0  0  0  0  0  0  0  0  0  0  0
   -6.1520   25.6790  -31.7360 C   0  0  0  0  0  0  0  0  0  0  0  0
   -1.9320   23.0890  -26.7260 C   0  0  0  0  0  0  0  0  0  0  0  0
  1  2  1  0
  2  3  1  0
  3  4  2  0
  4  5  1  0
  5  6  2  0
  6  7  1  0
  7  8  1  0
  8  9  1  0
  9 10  2  0
 10 11  1  0
 12  2  1  1
 12 13  1  0
 13 14  1  0
 14 15  1  1
 15 16  1  0
 16 17  2  0
 16 18  2  0
 16 19  1  0
 19 20  1  0
 20 21  1  0
 21 22  1  0
 22 23  1  0
 23 24  1  0
 22 25  1  0
 25 26  1  0
 14 27  1  0
 11  3  1  0
 27 12  1  0
 11  7  2  0
 24 19  1  0
 26 22  1  0
M  END
$$$$
