SXJBAMWBIIITKL-UHFFFAOYSA-N_6LXA_m5
     RDKit          3D

 32 34  0  0  0  0  0  0  0  0999 V2000
    2.1750    7.8790    0.2090 C   0  0  0  0  0  0  0  0  0  0  0  0
    2.6860    8.7320   -0.8170 O   0  0  0  0  0  0  0  0  0  0  0  0
    3.7830    8.2400   -1.4570 C   0  0  0  0  0  0  0  0  0  0  0  0
    4.9290    8.5870   -1.2000 O   0  0  0  0  0  0  0  0  0  0  0  0
    3.4550    7.3100   -2.4220 N   0  0  0  0  0  0  0  0  0  0  0  0
    3.2830    5.8890   -2.1080 C   0  0  0  0  0  0  0  0  0  0  0  0
    4.4800    5.2600   -1.4040 C   0  0  0  0  0  0  0  0  0  0  0  0
    4.4120    4.4640   -0.4780 O   0  0  0  0  0  0  0  0  0  0  0  0
    5.6840    5.6640   -1.8540 O   0  0  0  0  0  0  0  0  0  0  0  0
    3.1510    7.7570   -3.7740 C   0  0  0  0  0  0  0  0  0  0  0  0
    4.3780    7.7930   -4.6480 C   0  0  0  0  0  0  0  0  0  0  0  0
    5.0780    8.9920   -4.8570 C   0  0  0  0  0  0  0  0  0  0  0  0
    6.2240    9.0310   -5.6600 C   0  0  0  0  0  0  0  0  0  0  0  0
    6.7990   10.2660   -5.7630 O   0  0  0  0  0  0  0  0  0  0  0  0
    8.1690   10.3900   -5.3710 C   0  0  0  0  0  0  0  0  0  0  0  0
    9.0550   10.6210   -6.5480 C   0  0  0  0  0  0  0  0  0  0  0  0
    9.0110    9.7860   -7.6480 N   0  0  0  0  0  0  0  0  0  0  0  0
    9.9130   10.2840   -8.4730 C   0  0  0  0  0  0  0  0  0  0  0  0
   10.3170    9.8110   -9.7940 C   0  0  0  0  0  0  0  0  0  0  0  0
   10.8490   10.6780  -10.7640 C   0  0  0  0  0  0  0  0  0  0  0  0
   11.2280   10.1960  -12.0200 C   0  0  0  0  0  0  0  0  0  0  0  0
   11.0750    8.8460  -12.3130 C   0  0  0  0  0  0  0  0  0  0  0  0
   11.4390    8.3850  -13.5160 F   0  0  0  0  0  0  0  0  0  0  0  0
   10.5510    7.9670  -11.3730 C   0  0  0  0  0  0  0  0  0  0  0  0
   10.1730    8.4490  -10.1160 C   0  0  0  0  0  0  0  0  0  0  0  0
   10.5410   11.4070   -7.9990 O   0  0  0  0  0  0  0  0  0  0  0  0
    9.9820   11.6190   -6.7710 C   0  0  0  0  0  0  0  0  0  0  0  0
   10.4630   12.7780   -6.0000 C   0  0  0  0  0  0  0  0  0  0  0  0
    6.6760    7.8590   -6.2680 C   0  0  0  0  0  0  0  0  0  0  0  0
    5.9870    6.6590   -6.0670 C   0  0  0  0  0  0  0  0  0  0  0  0
    4.8510    6.6350   -5.2630 C   0  0  0  0  0  0  0  0  0  0  0  0
    4.2170    5.4690   -5.0780 F   0  0  0  0  0  0  0  0  0  0  0  0
  1  2  1  0
  2  3  1  0
  3  4  2  0
  3  5  1  0
  5  6  1  0
  6  7  1  0
  7  8  2  0
  7  9  1  0
  5 10  1  0
 10 11  1  0
 11 12  2  0
 12 13  1  0
 13 14  1  0
 14 15  1  0
 15 16  1  0
 16 17  1  0
 17 18  2  0
 18 19  1  0
 19 20  2  0
 20 21  1  0
 21 22  2  0
 22 23  1  0
 22 24  1  0
 24 25  2  0
 18 26  1  0
 26 27  1  0
 27 28  1  0
 13 29  2  0
 29 30  1  0
 30 31  2  0
 31 32  1  0
 31 11  1  0
 27 16  2  0
 25 19  1  0
M  END
$$$$
