SYSYKLZQEKYYOI-RBUKOAKNSA-N_4UDW_m3
     RDKit          3D

 41 43  0  0  0  0  0  0  0  0999 V2000
  130.1060  -12.5270  158.1590 N   0  0  0  0  0  0  0  0  0  0  0  0
  129.3520  -13.0960  157.2930 C   0  0  0  0  0  0  0  0  0  0  0  0
  129.5570  -12.8720  155.9900 N   0  0  0  0  0  0  0  0  0  0  0  0
  128.3180  -13.9270  157.5200 N   0  0  0  0  0  0  0  0  0  0  0  0
  127.7130  -14.2550  158.7870 C   0  0  0  0  0  0  0  0  0  0  0  0
  128.0660  -15.6850  159.2100 C   0  0  0  0  0  0  0  0  0  0  0  0
  127.6100  -16.0780  160.6240 C   0  0  0  0  0  0  0  0  0  0  0  0
  127.4770  -14.9020  161.6060 C   0  0  2  0  0  0  0  0  0  0  0  0
  128.6130  -14.8670  162.5290 N   0  0  0  0  0  0  0  0  0  0  0  0
  129.8030  -14.2410  162.2420 C   0  0  0  0  0  0  0  0  0  0  0  0
  129.9870  -13.6210  161.1910 O   0  0  0  0  0  0  0  0  0  0  0  0
  130.8270  -14.2260  163.3870 C   0  0  0  0  0  0  0  0  0  0  0  0
  131.3610  -15.5510  163.7240 N   0  0  0  0  0  0  0  0  0  0  0  0
  132.5610  -15.9820  163.0180 C   0  0  0  0  0  0  0  0  0  0  0  0
  132.9130  -17.4590  163.1950 C   0  0  0  0  0  0  0  0  0  0  0  0
  132.7750  -17.9020  164.6070 N   0  0  0  0  0  0  0  0  0  0  0  0
  134.0430  -17.5220  165.6720 S   0  0  0  0  0  0  0  0  0  0  0  0
  135.0360  -18.5670  165.5350 O   0  0  0  0  0  0  0  0  0  0  0  0
  134.4150  -16.1410  165.4390 O   0  0  0  0  0  0  0  0  0  0  0  0
  133.3250  -17.6480  167.3230 C   0  0  0  0  0  0  0  0  0  0  0  0
  133.9690  -18.7330  168.1470 C   0  0  0  0  0  0  0  0  0  0  0  0
  135.1150  -18.4570  168.9090 C   0  0  0  0  0  0  0  0  0  0  0  0
  135.7130  -19.4540  169.6840 C   0  0  0  0  0  0  0  0  0  0  0  0
  135.1650  -20.7340  169.7170 C   0  0  0  0  0  0  0  0  0  0  0  0
  134.0190  -21.0160  168.9800 C   0  0  0  0  0  0  0  0  0  0  0  0
  133.4190  -20.0210  168.2070 C   0  0  0  0  0  0  0  0  0  0  0  0
  131.4070  -17.6210  165.1520 C   0  0  2  0  0  0  0  0  0  0  0  0
  130.4190  -18.7040  164.6710 C   0  0  0  0  0  0  0  0  0  0  0  0
  129.7240  -18.3830  163.3450 C   0  0  0  0  0  0  0  0  0  0  0  0
  128.2190  -18.4320  163.3810 C   0  0  0  0  0  0  0  0  0  0  0  0
  127.5190  -19.2160  162.7590 O   0  0  0  0  0  0  0  0  0  0  0  0
  127.6560  -17.4550  164.1140 O   0  0  0  0  0  0  0  0  0  0  0  0
  130.8330  -16.2440  164.8000 C   0  0  0  0  0  0  0  0  0  0  0  0
  129.8310  -15.8120  165.3800 O   0  0  0  0  0  0  0  0  0  0  0  0
  126.1990  -15.0660  162.4510 C   0  0  0  0  0  0  0  0  0  0  0  0
  125.4660  -16.0480  162.2740 O   0  0  0  0  0  0  0  0  0  0  0  0
  125.9320  -14.0060  163.4130 C   0  0  0  0  0  0  0  0  0  0  0  0
  126.6000  -12.8690  163.4500 N   0  0  0  0  0  0  0  0  0  0  0  0
  126.1210  -12.0860  164.4830 C   0  0  0  0  0  0  0  0  0  0  0  0
  125.0910  -12.6320  165.2150 C   0  0  0  0  0  0  0  0  0  0  0  0
  124.6950  -14.1780  164.5910 S   0  0  0  0  0  0  0  0  0  0  0  0
  1  2  2  3
  2  3  1  0
  2  4  1  0
  4  5  1  0
  5  6  1  0
  6  7  1  0
  8  7  1  6
  8  9  1  0
  9 10  1  0
 10 11  2  0
 10 12  1  0
 12 13  1  0
 13 14  1  0
 14 15  1  0
 15 16  1  0
 16 17  1  0
 17 18  2  0
 17 19  2  0
 17 20  1  0
 20 21  1  0
 21 22  2  0
 22 23  1  0
 23 24  2  0
 24 25  1  0
 25 26  2  0
 16 27  1  0
 27 28  1  6
 28 29  1  0
 29 30  1  0
 30 31  2  0
 30 32  1  0
 27 33  1  0
 33 34  2  0
  8 35  1  0
 35 36  2  0
 35 37  1  0
 37 38  2  0
 38 39  1  0
 39 40  2  0
 40 41  1  0
 33 13  1  0
 41 37  1  0
 26 21  1  0
M  END
$$$$
