TVEAXARFLUXLEB-UHFFFAOYSA-N_9V8H_m2
     RDKit          3D

 36 39  0  0  0  0  0  0  0  0999 V2000
   -7.3340   -8.7900  -28.8990 C   0  0  0  0  0  0  0  0  0  0  0  0
   -7.7160   -9.4050  -27.5630 C   0  0  0  0  0  0  0  0  0  0  0  0
   -7.7220   -8.3580  -26.4490 C   0  0  0  0  0  0  0  0  0  0  0  0
   -9.0340   -8.3430  -25.6950 C   0  0  0  0  0  0  0  0  0  0  0  0
  -10.2120   -8.0090  -26.3840 C   0  0  0  0  0  0  0  0  0  0  0  0
  -11.4380   -7.9840  -25.7170 C   0  0  0  0  0  0  0  0  0  0  0  0
  -12.6350   -7.6970  -26.3370 O   0  0  0  0  0  0  0  0  0  0  0  0
  -12.9570   -6.3730  -26.5220 C   0  0  0  0  0  0  0  0  0  0  0  0
  -13.6560   -5.7380  -25.4950 C   0  0  0  0  0  0  0  0  0  0  0  0
  -13.9910   -4.3910  -25.6200 C   0  0  0  0  0  0  0  0  0  0  0  0
  -13.6090   -3.6890  -26.7600 C   0  0  0  0  0  0  0  0  0  0  0  0
  -13.9530   -2.3980  -26.8680 F   0  0  0  0  0  0  0  0  0  0  0  0
  -12.8760   -4.3010  -27.7810 C   0  0  0  0  0  0  0  0  0  0  0  0
  -12.4930   -3.5270  -29.0060 C   0  0  0  0  0  0  0  0  0  0  0  0
  -12.5510   -5.6580  -27.6550 C   0  0  0  0  0  0  0  0  0  0  0  0
  -11.5030   -8.3290  -24.3700 C   0  0  0  0  0  0  0  0  0  0  0  0
  -10.3400   -8.6770  -23.6780 C   0  0  0  0  0  0  0  0  0  0  0  0
   -9.1050   -8.6940  -24.3330 C   0  0  0  0  0  0  0  0  0  0  0  0
   -7.9160   -9.0260  -23.7390 O   0  0  0  0  0  0  0  0  0  0  0  0
   -7.9440   -9.3700  -22.3530 C   0  0  0  0  0  0  0  0  0  0  0  0
   -6.8910   -8.5160  -21.6500 C   0  0  0  0  0  0  0  0  0  0  0  0
   -7.3340   -7.0690  -21.4800 C   0  0  0  0  0  0  0  0  0  0  0  0
   -6.8380   -6.5770  -20.2360 O   0  0  0  0  0  0  0  0  0  0  0  0
   -5.6000   -5.9960  -20.2450 C   0  0  0  0  0  0  0  0  0  0  0  0
   -4.4150   -6.5810  -19.8020 C   0  0  0  0  0  0  0  0  0  0  0  0
   -3.2190   -5.8660  -19.8610 C   0  0  0  0  0  0  0  0  0  0  0  0
   -3.1960   -4.5640  -20.3670 C   0  0  0  0  0  0  0  0  0  0  0  0
   -4.3750   -3.9610  -20.8290 C   0  0  0  0  0  0  0  0  0  0  0  0
   -4.4030   -2.5490  -21.3720 C   0  0  1  0  0  0  0  0  0  0  0  0
   -3.5930   -1.3740  -20.2370 S   0  0  0  0  0  0  0  0  0  0  0  0
   -2.5370   -0.7550  -21.4760 C   0  0  0  0  0  0  0  0  0  0  0  0
   -1.7180    0.1300  -21.2940 O   0  0  0  0  0  0  0  0  0  0  0  0
   -2.7480   -1.3920  -22.6500 N   0  0  0  0  0  0  0  0  0  0  0  0
   -3.7000   -2.3670  -22.7060 C   0  0  0  0  0  0  0  0  0  0  0  0
   -3.9310   -3.0010  -23.7270 O   0  0  0  0  0  0  0  0  0  0  0  0
   -5.5730   -4.6910  -20.7480 C   0  0  0  0  0  0  0  0  0  0  0  0
  1  2  1  0
  2  3  1  0
  3  4  1  0
  4  5  2  0
  5  6  1  0
  6  7  1  0
  7  8  1  0
  8  9  2  0
  9 10  1  0
 10 11  2  0
 11 12  1  0
 11 13  1  0
 13 14  1  0
 13 15  2  0
  6 16  2  0
 16 17  1  0
 17 18  2  0
 18 19  1  0
 19 20  1  0
 20 21  1  0
 21 22  1  0
 22 23  1  0
 23 24  1  0
 24 25  2  0
 25 26  1  0
 26 27  2  0
 27 28  1  0
 29 28  1  1
 29 30  1  0
 30 31  1  0
 31 32  2  0
 31 33  1  0
 33 34  1  0
 34 35  2  0
 28 36  2  0
 18  4  1  0
 36 24  1  0
 15  8  1  0
 34 29  1  0
M  END
$$$$
