TYNDGSBNGKLNDC-UHFFFAOYSA-N_4BDS_m2
     RDKit          3D

 45 51  0  0  0  0  0  0  0  0999 V2000
  137.4880  117.2350   40.7090 C   0  0  0  0  0  0  0  0  0  0  0  0
  138.8500  117.5050   40.4040 O   0  0  0  0  0  0  0  0  0  0  0  0
  139.7900  116.8080   41.1100 C   0  0  0  0  0  0  0  0  0  0  0  0
  140.7460  117.3600   41.9750 C   0  0  0  0  0  0  0  0  0  0  0  0
  141.6710  116.5580   42.6570 C   0  0  0  0  0  0  0  0  0  0  0  0
  141.6730  115.1670   42.5050 C   0  0  0  0  0  0  0  0  0  0  0  0
  140.7230  114.5840   41.6520 C   0  0  0  0  0  0  0  0  0  0  0  0
  140.4090  113.2600   41.2470 C   0  0  0  0  0  0  0  0  0  0  0  0
  139.3620  113.3540   40.3530 C   0  0  0  0  0  0  0  0  0  0  0  0
  138.5860  112.3440   39.5740 C   0  0  0  0  0  0  0  0  0  0  0  0
  137.8720  111.3190   40.3690 N   0  0  0  0  0  0  0  0  0  0  0  0
  136.4330  111.2300   40.0570 C   0  0  0  0  0  0  0  0  0  0  0  0
  135.5200  111.1850   41.2940 C   0  0  0  0  0  0  0  0  0  0  0  0
  135.6360  112.4810   42.1030 C   0  0  0  0  0  0  0  0  0  0  0  0
  134.8180  112.4170   43.3960 C   0  0  0  0  0  0  0  0  0  0  0  0
  133.4220  113.0180   43.1920 C   0  0  0  0  0  0  0  0  0  0  0  0
  133.4190  114.5440   43.0400 C   0  0  0  0  0  0  0  0  0  0  0  0
  132.6480  114.9310   41.8750 N   0  0  0  0  0  0  0  0  0  0  0  0
  133.1590  115.5380   40.7380 C   0  0  0  0  0  0  0  0  0  0  0  0
  133.4060  116.9010   40.6480 C   0  0  0  0  0  0  0  0  0  0  0  0
  133.8960  117.4260   39.4590 C   0  0  0  0  0  0  0  0  0  0  0  0
  134.1570  116.7250   38.3490 N   0  0  0  0  0  0  0  0  0  0  0  0
  133.9240  115.4050   38.4120 C   0  0  0  0  0  0  0  0  0  0  0  0
  134.1810  114.6520   37.2750 C   0  0  0  0  0  0  0  0  0  0  0  0
  133.9570  113.2740   37.2290 C   0  0  0  0  0  0  0  0  0  0  0  0
  133.4600  112.6240   38.3480 C   0  0  0  0  0  0  0  0  0  0  0  0
  133.1900  113.3590   39.5050 C   0  0  0  0  0  0  0  0  0  0  0  0
  133.4230  114.7550   39.5730 C   0  0  0  0  0  0  0  0  0  0  0  0
  134.1000  118.9120   39.5560 C   0  0  0  0  0  0  0  0  0  0  0  0
  134.1510  119.0960   41.0730 C   0  0  0  0  0  0  0  0  0  0  0  0
  133.2650  117.9910   41.6660 C   0  0  0  0  0  0  0  0  0  0  0  0
  138.4850  109.9800   40.2490 C   0  0  0  0  0  0  0  0  0  0  0  0
  139.2470  109.7880   38.9780 C   0  0  0  0  0  0  0  0  0  0  0  0
  140.5890  109.8400   38.6580 C   0  0  0  0  0  0  0  0  0  0  0  0
  140.6900  109.5230   37.2780 C   0  0  0  0  0  0  0  0  0  0  0  0
  141.7420  109.3860   36.3580 C   0  0  0  0  0  0  0  0  0  0  0  0
  141.4340  109.0400   35.0350 C   0  0  0  0  0  0  0  0  0  0  0  0
  140.1090  108.8470   34.6270 C   0  0  0  0  0  0  0  0  0  0  0  0
  139.0370  108.9940   35.5180 C   0  0  0  0  0  0  0  0  0  0  0  0
  137.7150  108.8230   35.2130 O   0  0  0  0  0  0  0  0  0  0  0  0
  137.2180  107.4920   35.2910 C   0  0  0  0  0  0  0  0  0  0  0  0
  139.3880  109.3170   36.8350 C   0  0  0  0  0  0  0  0  0  0  0  0
  138.5140  109.4790   37.8700 O   0  0  0  0  0  0  0  0  0  0  0  0
  138.9910  114.6590   40.2080 O   0  0  0  0  0  0  0  0  0  0  0  0
  139.8210  115.4120   40.9900 C   0  0  0  0  0  0  0  0  0  0  0  0
  1  2  1  0
  2  3  1  0
  3  4  2  0
  4  5  1  0
  5  6  2  0
  6  7  1  0
  7  8  1  0
  8  9  2  0
  9 10  1  0
 10 11  1  0
 11 12  1  0
 12 13  1  0
 13 14  1  0
 14 15  1  0
 15 16  1  0
 16 17  1  0
 17 18  1  0
 18 19  1  0
 19 20  2  0
 20 21  1  0
 21 22  2  0
 22 23  1  0
 23 24  2  0
 24 25  1  0
 25 26  2  0
 26 27  1  0
 27 28  2  0
 21 29  1  0
 29 30  1  0
 30 31  1  0
 11 32  1  0
 32 33  1  0
 33 34  2  0
 34 35  1  0
 35 36  2  0
 36 37  1  0
 37 38  2  0
 38 39  1  0
 39 40  1  0
 40 41  1  0
 39 42  2  0
 42 43  1  0
  9 44  1  0
 44 45  1  0
 45  3  1  0
 45  7  2  0
 28 19  1  0
 43 33  1  0
 31 20  1  0
 42 35  1  0
 28 23  1  0
M  END
$$$$
