UAKGPERAUAMZPO-IAGOWNOFSA-N_6N7A_m3
     RDKit          3D

 37 41  0  0  0  0  0  0  0  0999 V2000
    7.0180  -19.4670   19.2820 C   0  0  0  0  0  0  0  0  0  0  0  0
    6.3320  -20.3120   20.1970 O   0  0  0  0  0  0  0  0  0  0  0  0
    5.0820  -19.8910   20.5030 C   0  0  0  0  0  0  0  0  0  0  0  0
    4.8480  -18.6390   20.9130 N   0  0  0  0  0  0  0  0  0  0  0  0
    3.5110  -18.6290   21.0950 N   0  0  0  0  0  0  0  0  0  0  0  0
    2.8600  -17.4160   21.5280 C   0  0  0  0  0  0  0  0  0  0  0  0
    2.9060  -19.8220   20.8200 C   0  0  0  0  0  0  0  0  0  0  0  0
    3.9080  -20.6730   20.4240 C   0  0  0  0  0  0  0  0  0  0  0  0
    3.8280  -21.9570   20.0210 N   0  0  0  0  0  0  0  0  0  0  0  0
    4.1130  -23.1540   20.6760 C   0  0  0  0  0  0  0  0  0  0  0  0
    3.2040  -24.1310   20.5140 N   0  0  0  0  0  0  0  0  0  0  0  0
    3.4290  -25.2940   21.1530 C   0  0  0  0  0  0  0  0  0  0  0  0
    4.5240  -25.5250   21.9430 C   0  0  0  0  0  0  0  0  0  0  0  0
    5.4110  -24.4760   22.0350 C   0  0  0  0  0  0  0  0  0  0  0  0
    6.6400  -24.5900   22.8040 C   0  0  0  0  0  0  0  0  0  0  0  0
    7.5360  -23.5580   22.9810 C   0  0  0  0  0  0  0  0  0  0  0  0
    8.5660  -24.0240   23.7530 N   0  0  0  0  0  0  0  0  0  0  0  0
    8.3540  -25.3310   24.1320 C   0  0  0  0  0  0  0  0  0  0  0  0
    9.1030  -26.1910   24.9520 C   0  0  0  0  0  0  0  0  0  0  0  0
   10.3000  -25.8840   25.6200 N   0  0  0  0  0  0  0  0  0  0  0  0
   10.5680  -25.8260   26.9750 C   0  0  0  0  0  0  0  0  0  0  0  0
    9.7690  -25.9980   27.8940 O   0  0  0  0  0  0  0  0  0  0  0  0
   12.0700  -25.5690   27.2650 C   0  0  1  0  0  0  0  0  0  0  0  0
   12.1240  -24.2570   28.0610 C   0  0  0  0  0  0  0  0  0  0  0  0
   12.6560  -26.7520   27.9780 N   0  0  0  0  0  0  0  0  0  0  0  0
   14.1290  -26.6560   28.1420 C   0  0  0  0  0  0  0  0  0  0  0  0
   14.9450  -26.8320   26.8430 C   0  0  0  0  0  0  0  0  0  0  0  0
   14.6490  -28.1120   26.1800 N   0  0  0  0  0  0  0  0  0  0  0  0
   15.3920  -28.2380   24.9290 C   0  0  0  0  0  0  0  0  0  0  0  0
   13.1990  -28.2440   25.9500 C   0  0  0  0  0  0  0  0  0  0  0  0
   12.3420  -28.0210   27.2350 C   0  0  1  0  0  0  0  0  0  0  0  0
   12.4600  -29.2210   28.1860 C   0  0  0  0  0  0  0  0  0  0  0  0
    8.5910  -27.4870   25.1400 C   0  0  0  0  0  0  0  0  0  0  0  0
    7.4040  -27.9040   24.5420 C   0  0  0  0  0  0  0  0  0  0  0  0
    6.6810  -27.0300   23.7330 C   0  0  0  0  0  0  0  0  0  0  0  0
    7.1540  -25.7210   23.5210 C   0  0  0  0  0  0  0  0  0  0  0  0
    5.2220  -23.2970   21.4120 N   0  0  0  0  0  0  0  0  0  0  0  0
  1  2  1  0
  2  3  1  0
  3  4  2  0
  4  5  1  0
  5  6  1  0
  5  7  1  0
  7  8  2  0
  8  9  1  0
  9 10  1  0
 10 11  2  0
 11 12  1  0
 12 13  2  0
 13 14  1  0
 14 15  1  0
 15 16  2  0
 16 17  1  0
 17 18  1  0
 18 19  2  0
 19 20  1  0
 20 21  1  0
 21 22  2  0
 21 23  1  0
 23 24  1  1
 23 25  1  0
 25 26  1  0
 26 27  1  0
 27 28  1  0
 28 29  1  0
 28 30  1  0
 30 31  1  0
 31 32  1  1
 19 33  1  0
 33 34  2  0
 34 35  1  0
 35 36  2  0
 14 37  2  0
  8  3  1  0
 37 10  1  0
 36 15  1  0
 36 18  1  0
 31 25  1  0
M  END
$$$$
