UBEVQYMSHABHOM-UHFFFAOYSA-N_3RCD_m6
     RDKit          3D

 24 27  0  0  0  0  0  0  0  0999 V2000
   18.7210    3.2590   23.8930 Cl  0  0  0  0  0  0  0  0  0  0  0  0
   17.5060    2.7650   25.0050 C   0  0  0  0  0  0  0  0  0  0  0  0
   17.6840    1.6050   25.7520 C   0  0  0  0  0  0  0  0  0  0  0  0
   16.6940    1.2070   26.6540 C   0  0  0  0  0  0  0  0  0  0  0  0
   15.5180    1.9620   26.8300 C   0  0  0  0  0  0  0  0  0  0  0  0
   14.5450    1.4780   27.8000 C   0  0  0  0  0  0  0  0  0  0  0  0
   14.2430    0.2400   28.1390 N   0  0  0  0  0  0  0  0  0  0  0  0
   13.3060    0.3190   29.1460 N   0  0  0  0  0  0  0  0  0  0  0  0
   13.1240    1.6050   29.3780 C   0  0  0  0  0  0  0  0  0  0  0  0
   12.2360    2.2620   30.3670 C   0  0  0  0  0  0  0  0  0  0  0  0
   11.0500    1.4280   30.7340 C   0  0  0  0  0  0  0  0  0  0  0  0
    9.7920    1.8240   30.7520 N   0  0  0  0  0  0  0  0  0  0  0  0
    9.0590    0.7260   31.1250 C   0  0  0  0  0  0  0  0  0  0  0  0
    7.6750    0.5910   31.3070 C   0  0  0  0  0  0  0  0  0  0  0  0
    7.1660   -0.6560   31.6980 C   0  0  0  0  0  0  0  0  0  0  0  0
    8.0230   -1.7400   31.9030 C   0  0  0  0  0  0  0  0  0  0  0  0
    7.3640   -3.2570   32.3850 Cl  0  0  0  0  0  0  0  0  0  0  0  0
    9.4070   -1.6270   31.7260 C   0  0  0  0  0  0  0  0  0  0  0  0
    9.8840   -0.3730   31.3350 C   0  0  0  0  0  0  0  0  0  0  0  0
   11.1450    0.0960   31.0740 N   0  0  0  0  0  0  0  0  0  0  0  0
   13.8860    2.4020   28.5690 O   0  0  0  0  0  0  0  0  0  0  0  0
   15.3540    3.1220   26.0520 C   0  0  0  0  0  0  0  0  0  0  0  0
   13.9240    4.0990   26.0990 Cl  0  0  0  0  0  0  0  0  0  0  0  0
   16.3480    3.5220   25.1470 C   0  0  0  0  0  0  0  0  0  0  0  0
  1  2  1  0
  2  3  2  0
  3  4  1  0
  4  5  2  0
  5  6  1  0
  6  7  2  0
  7  8  1  0
  8  9  2  0
  9 10  1  0
 10 11  1  0
 11 12  2  0
 12 13  1  0
 13 14  2  0
 14 15  1  0
 15 16  2  0
 16 17  1  0
 16 18  1  0
 18 19  2  0
 19 20  1  0
  9 21  1  0
  5 22  1  0
 22 23  1  0
 22 24  2  0
 24  2  1  0
 21  6  1  0
 20 11  1  0
 19 13  1  0
M  END
$$$$
