UBPYILGKFZZVDX-UHFFFAOYSA-N_3POZ_m6
     RDKit          3D

 36 39  0  0  0  0  0  0  0  0999 V2000
   23.7900   33.6750   19.9820 C   0  0  0  0  0  0  0  0  0  0  0  0
   23.2720   33.1360   18.7720 O   0  0  0  0  0  0  0  0  0  0  0  0
   22.9720   34.0100   17.7610 C   0  0  0  0  0  0  0  0  0  0  0  0
   21.7540   34.6910   17.6400 C   0  0  0  0  0  0  0  0  0  0  0  0
   21.5150   35.5870   16.5840 C   0  0  0  0  0  0  0  0  0  0  0  0
   20.3160   36.3330   16.4940 N   0  0  0  0  0  0  0  0  0  0  0  0
   18.9690   35.9060   16.3790 C   0  0  0  0  0  0  0  0  0  0  0  0
   18.0520   36.2430   17.3880 C   0  0  0  0  0  0  0  0  0  0  0  0
   18.4340   36.9550   18.5670 C   0  0  0  0  0  0  0  0  0  0  0  0
   18.7490   37.5210   19.5290 N   0  0  0  0  0  0  0  0  0  0  0  0
   16.7270   35.8920   17.2160 C   0  0  0  0  0  0  0  0  0  0  0  0
   16.2550   35.2410   16.1330 N   0  0  0  0  0  0  0  0  0  0  0  0
   17.1210   34.8870   15.1720 C   0  0  0  0  0  0  0  0  0  0  0  0
   16.6230   34.1990   14.0750 C   0  0  0  0  0  0  0  0  0  0  0  0
   17.4480   33.7720   13.0310 C   0  0  0  0  0  0  0  0  0  0  0  0
   17.0100   33.1020   11.9180 O   0  0  0  0  0  0  0  0  0  0  0  0
   16.4050   33.8630   10.8710 C   0  0  0  0  0  0  0  0  0  0  0  0
   17.2030   33.6400    9.5860 C   0  0  0  0  0  0  0  0  0  0  0  0
   16.3240   33.6420    8.3270 C   0  0  0  0  0  0  0  0  0  0  0  0
   16.4010   32.3910    7.5530 N   0  0  0  0  0  0  0  0  0  0  0  0
   15.4150   31.4150    8.0690 C   0  0  0  0  0  0  0  0  0  0  0  0
   15.4810   30.0610    7.3280 C   0  0  0  0  0  0  0  0  0  0  0  0
   16.8250   29.4580    7.3930 N   0  0  0  0  0  0  0  0  0  0  0  0
   16.8700   28.2110    6.6350 C   0  0  0  0  0  0  0  0  0  0  0  0
   17.8120   30.4230    6.8750 C   0  0  0  0  0  0  0  0  0  0  0  0
   17.7470   31.7820    7.6110 C   0  0  0  0  0  0  0  0  0  0  0  0
   18.8220   34.0410   13.0890 C   0  0  0  0  0  0  0  0  0  0  0  0
   19.5780   33.5910   12.0370 O   0  0  0  0  0  0  0  0  0  0  0  0
   20.3530   32.4170   12.2430 C   0  0  0  0  0  0  0  0  0  0  0  0
   19.3360   34.7150   14.1980 C   0  0  0  0  0  0  0  0  0  0  0  0
   18.5000   35.1810   15.2420 C   0  0  0  0  0  0  0  0  0  0  0  0
   22.5370   35.7770   15.6320 C   0  0  0  0  0  0  0  0  0  0  0  0
   22.3150   36.8730   14.3110 Cl  0  0  0  0  0  0  0  0  0  0  0  0
   23.7490   35.0970   15.7280 C   0  0  0  0  0  0  0  0  0  0  0  0
   23.9640   34.2200   16.7900 C   0  0  0  0  0  0  0  0  0  0  0  0
   25.4930   33.4140   16.8750 Cl  0  0  0  0  0  0  0  0  0  0  0  0
  1  2  1  0
  2  3  1  0
  3  4  2  0
  4  5  1  0
  5  6  1  0
  6  7  1  0
  7  8  2  0
  8  9  1  0
  9 10  3  0
  8 11  1  0
 11 12  2  0
 12 13  1  0
 13 14  2  0
 14 15  1  0
 15 16  1  0
 16 17  1  0
 17 18  1  0
 18 19  1  0
 19 20  1  0
 20 21  1  0
 21 22  1  0
 22 23  1  0
 23 24  1  0
 23 25  1  0
 25 26  1  0
 15 27  2  0
 27 28  1  0
 28 29  1  0
 27 30  1  0
 30 31  2  0
  5 32  2  0
 32 33  1  0
 32 34  1  0
 34 35  2  0
 35 36  1  0
 35  3  1  0
 31  7  1  0
 31 13  1  0
 26 20  1  0
M  END
$$$$
