UHBNUHALRRHSEI-UHFFFAOYSA-N_4BDS_m4
     RDKit          3D

 42 45  0  0  0  0  0  0  0  0999 V2000
  135.4660  110.8060   36.6240 C   0  0  0  0  0  0  0  0  0  0  0  0
  135.0470  112.0840   37.3340 C   0  0  0  0  0  0  0  0  0  0  0  0
  133.6200  112.5310   37.0050 C   0  0  0  0  0  0  0  0  0  0  0  0
  133.5570  113.6250   35.9360 C   0  0  0  0  0  0  0  0  0  0  0  0
  133.8580  115.0010   36.5370 C   0  0  0  0  0  0  0  0  0  0  0  0
  133.8440  116.1300   35.5030 C   0  0  0  0  0  0  0  0  0  0  0  0
  133.8540  117.5240   36.1260 C   0  0  0  0  0  0  0  0  0  0  0  0
  134.0090  117.4550   37.5610 N   0  0  0  0  0  0  0  0  0  0  0  0
  134.2000  118.5630   38.3390 C   0  0  0  0  0  0  0  0  0  0  0  0
  134.2780  119.7060   37.9110 O   0  0  0  0  0  0  0  0  0  0  0  0
  134.2840  118.1720   39.6660 O   0  0  0  0  0  0  0  0  0  0  0  0
  135.2980  117.2530   39.9570 C   0  0  0  0  0  0  0  0  0  0  0  0
  136.5340  117.7540   40.3540 C   0  0  0  0  0  0  0  0  0  0  0  0
  137.5490  116.8670   40.7110 C   0  0  0  0  0  0  0  0  0  0  0  0
  137.3250  115.4790   40.6950 C   0  0  0  0  0  0  0  0  0  0  0  0
  138.4330  114.5150   41.0660 C   0  0  0  0  0  0  0  0  0  0  0  0
  138.5540  113.3450   40.1330 C   0  0  0  0  0  0  0  0  0  0  0  0
  139.1740  113.3750   38.9680 N   0  0  0  0  0  0  0  0  0  0  0  0
  139.0780  112.1100   38.4510 C   0  0  0  0  0  0  0  0  0  0  0  0
  139.5700  111.6070   37.2410 C   0  0  0  0  0  0  0  0  0  0  0  0
  139.3110  110.2640   36.9360 C   0  0  0  0  0  0  0  0  0  0  0  0
  139.8030  109.7010   35.6650 C   0  0  0  0  0  0  0  0  0  0  0  0
  139.0470  109.7520   34.6990 O   0  0  0  0  0  0  0  0  0  0  0  0
  141.0880  109.1540   35.6200 N   0  0  0  0  0  0  0  0  0  0  0  0
  142.0710  109.2400   36.7070 C   0  0  0  0  0  0  0  0  0  0  0  0
  142.1890  107.9520   37.5040 C   0  0  0  0  0  0  0  0  0  0  0  0
  141.5060  108.5140   34.3730 C   0  0  0  0  0  0  0  0  0  0  0  0
  142.8770  108.9870   33.9120 C   0  0  0  0  0  0  0  0  0  0  0  0
  138.6250  109.4270   37.8210 C   0  0  0  0  0  0  0  0  0  0  0  0
  138.1300  109.9230   39.0300 C   0  0  0  0  0  0  0  0  0  0  0  0
  138.3700  111.2750   39.3110 C   0  0  0  0  0  0  0  0  0  0  0  0
  138.0280  112.0910   40.3670 N   0  0  0  0  0  0  0  0  0  0  0  0
  137.2050  111.6870   41.4970 C   0  0  0  0  0  0  0  0  0  0  0  0
  135.8410  111.1600   41.0260 C   0  0  0  0  0  0  0  0  0  0  0  0
  134.6980  111.7060   41.7860 N   0  0  0  0  0  0  0  0  0  0  0  0
  133.7470  112.3460   40.8570 C   0  0  0  0  0  0  0  0  0  0  0  0
  132.5170  112.8850   41.5880 C   0  0  0  0  0  0  0  0  0  0  0  0
  132.9130  113.8520   42.6930 C   0  0  0  0  0  0  0  0  0  0  0  0
  133.9390  113.2070   43.6150 C   0  0  0  0  0  0  0  0  0  0  0  0
  135.1300  112.6550   42.8250 C   0  0  0  0  0  0  0  0  0  0  0  0
  136.0690  114.9970   40.2890 C   0  0  0  0  0  0  0  0  0  0  0  0
  135.0500  115.8820   39.9330 C   0  0  0  0  0  0  0  0  0  0  0  0
  1  2  1  0
  2  3  1  0
  3  4  1  0
  4  5  1  0
  5  6  1  0
  6  7  1  0
  7  8  1  0
  8  9  1  0
  9 10  2  0
  9 11  1  0
 11 12  1  0
 12 13  2  0
 13 14  1  0
 14 15  2  0
 15 16  1  0
 16 17  1  0
 17 18  2  0
 18 19  1  0
 19 20  2  0
 20 21  1  0
 21 22  1  0
 22 23  2  0
 22 24  1  0
 24 25  1  0
 25 26  1  0
 24 27  1  0
 27 28  1  0
 21 29  2  0
 29 30  1  0
 30 31  2  0
 31 32  1  0
 32 33  1  0
 33 34  1  0
 34 35  1  0
 35 36  1  0
 36 37  1  0
 37 38  1  0
 38 39  1  0
 39 40  1  0
 15 41  1  0
 41 42  2  0
 42 12  1  0
 32 17  1  0
 40 35  1  0
 31 19  1  0
M  END
$$$$
