UHJPSFDAARAJFA-UHFFFAOYSA-N_3LXP_m1
     RDKit          3D

 25 27  0  0  0  0  0  0  0  0999 V2000
   -2.3480   21.4090  -28.4860 C   0  0  0  0  0  0  0  0  0  0  0  0
   -2.4890   21.1240  -29.9690 C   0  0  0  0  0  0  0  0  0  0  0  0
   -4.1710   20.7320  -30.4020 S   0  0  0  0  0  0  0  0  0  0  0  0
   -4.1440   19.5960  -31.3100 O   0  0  0  0  0  0  0  0  0  0  0  0
   -4.9720   20.6870  -29.1910 O   0  0  0  0  0  0  0  0  0  0  0  0
   -4.7430   22.1280  -31.3500 C   0  0  0  0  0  0  0  0  0  0  0  0
   -5.3630   21.9210  -32.5710 C   0  0  0  0  0  0  0  0  0  0  0  0
   -5.7680   23.0470  -33.2750 C   0  0  0  0  0  0  0  0  0  0  0  0
   -5.5370   24.3120  -32.7320 C   0  0  0  0  0  0  0  0  0  0  0  0
   -4.8990   24.4190  -31.4950 C   0  0  0  0  0  0  0  0  0  0  0  0
   -4.6400   25.7150  -30.8770 C   0  0  0  0  0  0  0  0  0  0  0  0
   -4.9170   26.9270  -31.4830 C   0  0  0  0  0  0  0  0  0  0  0  0
   -4.5760   27.9340  -30.6180 N   0  0  0  0  0  0  0  0  0  0  0  0
   -4.7310   29.3450  -30.8950 C   0  0  0  0  0  0  0  0  0  0  0  0
   -4.0780   27.4070  -29.4480 C   0  0  0  0  0  0  0  0  0  0  0  0
   -3.6090   28.0200  -28.2920 C   0  0  0  0  0  0  0  0  0  0  0  0
   -3.1720   27.2570  -27.2660 N   0  0  0  0  0  0  0  0  0  0  0  0
   -3.1950   25.9110  -27.3700 C   0  0  0  0  0  0  0  0  0  0  0  0
   -2.7190   25.2740  -26.2240 N   0  0  0  0  0  0  0  0  0  0  0  0
   -1.5880   24.5070  -26.0760 C   0  0  0  0  0  0  0  0  0  0  0  0
   -1.4270   24.0010  -24.6660 C   0  0  0  0  0  0  0  0  0  0  0  0
   -0.7600   24.2400  -26.9410 O   0  0  0  0  0  0  0  0  0  0  0  0
   -3.6440   25.2430  -28.4990 C   0  0  0  0  0  0  0  0  0  0  0  0
   -4.1090   26.0180  -29.5780 C   0  0  0  0  0  0  0  0  0  0  0  0
   -4.4850   23.3380  -30.7960 N   0  0  0  0  0  0  0  0  0  0  0  0
  1  2  1  0
  2  3  1  0
  3  4  2  0
  3  5  2  0
  3  6  1  0
  6  7  2  0
  7  8  1  0
  8  9  2  0
  9 10  1  0
 10 11  1  0
 11 12  2  0
 12 13  1  0
 13 14  1  0
 13 15  1  0
 15 16  2  0
 16 17  1  0
 17 18  2  0
 18 19  1  0
 19 20  1  0
 20 21  1  0
 20 22  2  0
 18 23  1  0
 23 24  2  0
 10 25  2  0
 25  6  1  0
 24 11  1  0
 24 15  1  0
M  END
$$$$
