UHRIYOJEACOYON-PKOBYXMFSA-N_4UDW_m5
     RDKit          3D

 41 44  0  0  0  0  0  0  0  0999 V2000
  131.7990  -17.0870  163.5210 C   0  0  0  0  0  0  0  0  0  0  0  0
  130.8980  -16.9120  164.7380 C   0  0  0  0  0  0  0  0  0  0  0  0
  131.0940  -18.0070  165.7690 C   0  0  0  0  0  0  0  0  0  0  0  0
  132.1290  -17.9430  166.7500 C   0  0  0  0  0  0  0  0  0  0  0  0
  133.0030  -16.8310  166.9450 N   0  0  0  0  0  0  0  0  0  0  0  0
  132.8490  -15.8270  167.9670 C   0  0  0  0  0  0  0  0  0  0  0  0
  134.2610  -15.3450  168.2350 C   0  0  0  0  0  0  0  0  0  0  0  0
  134.8890  -15.3950  166.8550 C   0  0  1  0  0  0  0  0  0  0  0  0
  136.2950  -15.4680  166.9400 O   0  0  0  0  0  0  0  0  0  0  0  0
  134.2120  -16.6260  166.2500 C   0  0  0  0  0  0  0  0  0  0  0  0
  134.6830  -17.2520  165.3100 O   0  0  0  0  0  0  0  0  0  0  0  0
  132.3210  -19.0420  167.6120 C   0  0  0  0  0  0  0  0  0  0  0  0
  131.5330  -20.1860  167.5480 C   0  0  0  0  0  0  0  0  0  0  0  0
  130.5350  -20.2680  166.5950 C   0  0  0  0  0  0  0  0  0  0  0  0
  130.3170  -19.2040  165.7050 C   0  0  0  0  0  0  0  0  0  0  0  0
  129.0710  -19.5170  164.4500 S   0  0  0  0  0  0  0  0  0  0  0  0
  129.7120  -19.5540  163.1570 O   0  0  0  0  0  0  0  0  0  0  0  0
  128.2230  -20.6020  164.8930 O   0  0  0  0  0  0  0  0  0  0  0  0
  128.1420  -18.1020  164.4950 N   0  0  0  0  0  0  0  0  0  0  0  0
  127.5860  -17.6460  163.1770 C   0  0  1  0  0  0  0  0  0  0  0  0
  126.0700  -17.4630  163.3040 C   0  0  0  0  0  0  0  0  0  0  0  0
  125.7230  -16.3270  164.1390 N   0  0  0  0  0  0  0  0  0  0  0  0
  125.2800  -15.1330  163.6150 C   0  0  0  0  0  0  0  0  0  0  0  0
  125.0930  -14.9970  162.4090 O   0  0  0  0  0  0  0  0  0  0  0  0
  125.0610  -14.0590  164.5740 C   0  0  0  0  0  0  0  0  0  0  0  0
  124.2100  -14.0820  165.6680 C   0  0  0  0  0  0  0  0  0  0  0  0
  124.2360  -12.8620  166.4100 C   0  0  0  0  0  0  0  0  0  0  0  0
  125.1040  -11.9660  165.8470 C   0  0  0  0  0  0  0  0  0  0  0  0
  125.4550  -10.3820  166.4070 Cl  0  0  0  0  0  0  0  0  0  0  0  0
  125.8740  -12.5510  164.4610 S   0  0  0  0  0  0  0  0  0  0  0  0
  128.1760  -16.3030  162.7790 C   0  0  0  0  0  0  0  0  0  0  0  0
  128.4820  -15.4300  163.5840 O   0  0  0  0  0  0  0  0  0  0  0  0
  128.2940  -16.2090  161.4270 O   0  0  0  0  0  0  0  0  0  0  0  0
  128.4750  -14.8750  160.9180 C   0  0  0  0  0  0  0  0  0  0  0  0
  127.7810  -14.7230  159.5660 C   0  0  0  0  0  0  0  0  0  0  0  0
  128.6680  -14.0410  158.5840 C   0  0  0  0  0  0  0  0  0  0  0  0
  129.7060  -13.2870  158.8880 N   0  0  0  0  0  0  0  0  0  0  0  0
  130.2320  -12.8740  157.6920 C   0  0  0  0  0  0  0  0  0  0  0  0
  129.5120  -13.3870  156.6420 C   0  0  0  0  0  0  0  0  0  0  0  0
  128.5210  -14.1310  157.2180 N   0  0  0  0  0  0  0  0  0  0  0  0
  127.5130  -14.8840  156.5100 C   0  0  0  0  0  0  0  0  0  0  0  0
  1  2  1  0
  2  3  1  0
  3  4  2  0
  4  5  1  0
  5  6  1  0
  6  7  1  0
  7  8  1  0
  8  9  1  1
  8 10  1  0
 10 11  2  0
  4 12  1  0
 12 13  2  0
 13 14  1  0
 14 15  2  0
 15 16  1  0
 16 17  2  0
 16 18  2  0
 16 19  1  0
 19 20  1  0
 20 21  1  1
 21 22  1  0
 22 23  1  0
 23 24  2  0
 23 25  1  0
 25 26  2  0
 26 27  1  0
 27 28  2  0
 28 29  1  0
 28 30  1  0
 20 31  1  0
 31 32  2  0
 31 33  1  0
 33 34  1  0
 34 35  1  0
 35 36  1  0
 36 37  2  0
 37 38  1  0
 38 39  2  0
 39 40  1  0
 40 41  1  0
 15  3  1  0
 30 25  1  0
 40 36  1  0
 10  5  1  0
M  END
$$$$
