UKPORPWVWHZWTG-ZWKOTPCHSA-N_6N7A_m6
     RDKit          3D

 38 42  0  0  0  0  0  0  0  0999 V2000
    9.7020  -18.4790   20.7700 C   0  0  0  0  0  0  0  0  0  0  0  0
    9.9880  -19.8570   20.9700 O   0  0  0  0  0  0  0  0  0  0  0  0
   10.1990  -20.1980   22.2630 C   0  0  0  0  0  0  0  0  0  0  0  0
   10.6200  -19.3040   23.1610 N   0  0  0  0  0  0  0  0  0  0  0  0
   10.6920  -20.0300   24.2960 N   0  0  0  0  0  0  0  0  0  0  0  0
   11.1250  -19.3940   25.5160 C   0  0  0  0  0  0  0  0  0  0  0  0
   10.3280  -21.3370   24.1420 C   0  0  0  0  0  0  0  0  0  0  0  0
   10.0030  -21.4840   22.8160 C   0  0  0  0  0  0  0  0  0  0  0  0
    9.5920  -22.5820   22.1520 N   0  0  0  0  0  0  0  0  0  0  0  0
    8.3290  -23.1190   21.9180 C   0  0  0  0  0  0  0  0  0  0  0  0
    8.0510  -24.4060   22.1630 N   0  0  0  0  0  0  0  0  0  0  0  0
    6.7870  -24.8140   21.9440 C   0  0  0  0  0  0  0  0  0  0  0  0
    5.7740  -23.9980   21.4880 C   0  0  0  0  0  0  0  0  0  0  0  0
    4.3950  -24.5330   21.2930 C   0  0  0  0  0  0  0  0  0  0  0  0
    6.1680  -22.6980   21.2300 C   0  0  0  0  0  0  0  0  0  0  0  0
    5.2680  -21.6780   20.7070 C   0  0  0  0  0  0  0  0  0  0  0  0
    5.0400  -21.4620   19.3650 C   0  0  0  0  0  0  0  0  0  0  0  0
    4.1760  -20.4080   19.2470 N   0  0  0  0  0  0  0  0  0  0  0  0
    3.8450  -19.8960   20.4830 C   0  0  0  0  0  0  0  0  0  0  0  0
    3.0230  -18.8150   20.8460 C   0  0  0  0  0  0  0  0  0  0  0  0
    2.3010  -17.9780   19.9810 N   0  0  0  0  0  0  0  0  0  0  0  0
    2.1060  -16.6100   20.0230 C   0  0  0  0  0  0  0  0  0  0  0  0
    2.5420  -15.8290   20.8650 O   0  0  0  0  0  0  0  0  0  0  0  0
    1.3080  -16.1010   18.7930 C   0  0  1  0  0  0  0  0  0  0  0  0
    1.2130  -17.2850   17.8210 C   0  0  0  0  0  0  0  0  0  0  0  0
   -0.0210  -15.5750   19.2410 N   0  0  0  0  0  0  0  0  0  0  0  0
   -0.5310  -14.5910   18.2490 C   0  0  0  0  0  0  0  0  0  0  0  0
   -1.9130  -14.0300   18.6360 C   0  0  0  0  0  0  0  0  0  0  0  0
   -2.9320  -15.0880   18.7830 N   0  0  0  0  0  0  0  0  0  0  0  0
   -4.2070  -14.4830   19.1750 C   0  0  0  0  0  0  0  0  0  0  0  0
   -2.4560  -16.1020   19.7550 C   0  0  1  0  0  0  0  0  0  0  0  0
   -3.4120  -17.2990   19.8550 C   0  0  0  0  0  0  0  0  0  0  0  0
   -1.0390  -16.6420   19.3770 C   0  0  0  0  0  0  0  0  0  0  0  0
    2.9120  -18.5440   22.2240 C   0  0  0  0  0  0  0  0  0  0  0  0
    3.5800  -19.3040   23.1810 C   0  0  0  0  0  0  0  0  0  0  0  0
    4.3910  -20.3700   22.7920 C   0  0  0  0  0  0  0  0  0  0  0  0
    4.5310  -20.6770   21.4220 C   0  0  0  0  0  0  0  0  0  0  0  0
    7.4220  -22.2490   21.4580 N   0  0  0  0  0  0  0  0  0  0  0  0
  1  2  1  0
  2  3  1  0
  3  4  2  0
  4  5  1  0
  5  6  1  0
  5  7  1  0
  7  8  2  0
  8  9  1  0
  9 10  1  0
 10 11  2  0
 11 12  1  0
 12 13  2  0
 13 14  1  0
 13 15  1  0
 15 16  1  0
 16 17  2  0
 17 18  1  0
 18 19  1  0
 19 20  2  0
 20 21  1  0
 21 22  1  0
 22 23  2  0
 22 24  1  0
 24 25  1  6
 24 26  1  0
 26 27  1  0
 27 28  1  0
 28 29  1  0
 29 30  1  0
 29 31  1  0
 31 32  1  6
 31 33  1  0
 20 34  1  0
 34 35  2  0
 35 36  1  0
 36 37  2  0
 15 38  2  0
  8  3  1  0
 38 10  1  0
 37 16  1  0
 37 19  1  0
 33 26  1  0
M  END
$$$$
