ULCJJWMOPWEMQM-LPZXAVJZSA-N_8BXH_m4
     RDKit          3D

 34 37  0  0  0  0  0  0  0  0999 V2000
  -13.1370   12.0290   21.4290 C   0  0  0  0  0  0  0  0  0  0  0  0
  -13.2550   12.1460   19.9020 C   0  0  1  0  0  0  0  0  0  0  0  0
  -14.2940   11.2180   19.4940 O   0  0  0  0  0  0  0  0  0  0  0  0
  -13.7500   13.5490   19.5270 C   0  0  0  0  0  0  0  0  0  0  0  0
  -15.0600   13.7180   19.0420 C   0  0  0  0  0  0  0  0  0  0  0  0
  -15.5580   14.9830   18.7090 C   0  0  0  0  0  0  0  0  0  0  0  0
  -14.7700   16.1330   18.8440 C   0  0  0  0  0  0  0  0  0  0  0  0
  -15.3190   17.3780   18.4810 N   0  0  0  0  0  0  0  0  0  0  0  0
  -16.0400   18.2890   19.1820 C   0  0  0  0  0  0  0  0  0  0  0  0
  -17.3570   18.2730   19.4160 N   0  0  0  0  0  0  0  0  0  0  0  0
  -17.5860   19.3560   20.1660 N   0  0  0  0  0  0  0  0  0  0  0  0
  -18.9320   19.5870   20.6960 C   0  0  1  0  0  0  0  0  0  0  0  0
  -19.8730   20.1190   19.5960 C   0  0  0  0  0  0  0  0  0  0  0  0
  -21.2920   19.5540   19.6730 C   0  0  0  0  0  0  0  0  0  0  0  0
  -21.7870   19.5110   21.1270 C   0  0  1  0  0  0  0  0  0  0  0  0
  -23.1960   19.0740   21.1900 N   0  0  0  0  0  0  0  0  0  0  0  0
  -23.9180   19.6600   22.3500 C   0  0  0  0  0  0  0  0  0  0  0  0
  -24.4600   20.7700   21.4450 C   0  0  0  0  0  0  0  0  0  0  0  0
  -24.0760   19.8530   20.2800 C   0  0  0  0  0  0  0  0  0  0  0  0
  -20.9060   18.5290   21.9350 C   0  0  0  0  0  0  0  0  0  0  0  0
  -19.4780   18.3270   21.3910 C   0  0  2  0  0  0  0  0  0  0  0  0
  -18.5940   17.9280   22.5060 C   0  0  0  0  0  0  0  0  0  0  0  0
  -17.9000   17.6660   23.3990 N   0  0  0  0  0  0  0  0  0  0  0  0
  -16.4680   20.0940   20.4170 C   0  0  0  0  0  0  0  0  0  0  0  0
  -15.4220   19.4130   19.8180 C   0  0  0  0  0  0  0  0  0  0  0  0
  -14.0080   19.7350   19.8330 C   0  0  0  0  0  0  0  0  0  0  0  0
  -13.5040   20.2140   21.0080 N   0  0  0  0  0  0  0  0  0  0  0  0
  -13.2730   19.5640   18.8640 O   0  0  0  0  0  0  0  0  0  0  0  0
  -13.4600   15.9650   19.2970 C   0  0  0  0  0  0  0  0  0  0  0  0
  -12.9580   14.7000   19.6470 C   0  0  0  0  0  0  0  0  0  0  0  0
  -11.8970   11.7180   19.2730 C   0  0  0  0  0  0  0  0  0  0  0  0
  -10.8560   12.3880   19.8270 F   0  0  0  0  0  0  0  0  0  0  0  0
  -11.6570   10.3970   19.4650 F   0  0  0  0  0  0  0  0  0  0  0  0
  -11.8470   11.9540   17.9390 F   0  0  0  0  0  0  0  0  0  0  0  0
  2  1  1  1
  2  3  1  0
  2  4  1  0
  4  5  2  0
  5  6  1  0
  6  7  2  0
  7  8  1  0
  8  9  1  0
  9 10  2  0
 10 11  1  0
 12 11  1  6
 12 13  1  0
 13 14  1  0
 14 15  1  0
 15 16  1  6
 16 17  1  0
 17 18  1  0
 18 19  1  0
 15 20  1  0
 20 21  1  0
 21 22  1  1
 22 23  3  0
 11 24  1  0
 24 25  2  0
 25 26  1  0
 26 27  1  0
 26 28  2  0
  7 29  1  0
 29 30  2  0
  2 31  1  0
 31 32  1  0
 31 33  1  0
 31 34  1  0
 30  4  1  0
 25  9  1  0
 21 12  1  0
 19 16  1  0
M  END
$$$$
