UNTXLEZCEUSPFP-QNCXMEKNSA-N_3RCD_m9
     RDKit          3D

 38 42  0  0  0  0  0  0  0  0999 V2000
   11.0930    6.8920   26.3210 O   0  0  0  0  0  0  0  0  0  0  0  0
   10.8470    6.3110   25.2700 C   0  0  0  0  0  0  0  0  0  0  0  0
   11.5800    5.2930   24.6990 N   0  0  0  0  0  0  0  0  0  0  0  0
   12.7760    4.7060   25.1630 C   0  0  0  0  0  0  0  0  0  0  0  0
   12.8120    3.6000   26.0110 C   0  0  0  0  0  0  0  0  0  0  0  0
   14.0430    3.0370   26.4310 C   0  0  0  0  0  0  0  0  0  0  0  0
   14.1800    1.9130   27.2750 C   0  0  0  0  0  0  0  0  0  0  0  0
   13.0250    1.2510   27.7480 N   0  0  0  0  0  0  0  0  0  0  0  0
   12.2730    1.4320   28.9220 C   0  0  0  0  0  0  0  0  0  0  0  0
   10.9540    1.9110   28.8110 C   0  0  0  0  0  0  0  0  0  0  0  0
   10.1660    2.1270   29.9440 C   0  0  0  0  0  0  0  0  0  0  0  0
   10.6930    1.8770   31.2040 C   0  0  0  0  0  0  0  0  0  0  0  0
    9.9220    2.0920   32.2800 F   0  0  0  0  0  0  0  0  0  0  0  0
   11.9990    1.4180   31.3400 C   0  0  0  0  0  0  0  0  0  0  0  0
   12.6640    1.1200   32.9020 Cl  0  0  0  0  0  0  0  0  0  0  0  0
   12.7850    1.2020   30.2060 C   0  0  0  0  0  0  0  0  0  0  0  0
   15.3890    1.4600   27.6560 N   0  0  0  0  0  0  0  0  0  0  0  0
   16.4570    2.1040   27.1810 C   0  0  0  0  0  0  0  0  0  0  0  0
   16.4400    3.1640   26.3670 N   0  0  0  0  0  0  0  0  0  0  0  0
   15.2410    3.6220   26.0040 C   0  0  0  0  0  0  0  0  0  0  0  0
   15.1950    4.7330   25.1690 C   0  0  0  0  0  0  0  0  0  0  0  0
   13.9850    5.2830   24.7390 C   0  0  0  0  0  0  0  0  0  0  0  0
   13.8550    6.3730   23.9130 O   0  0  0  0  0  0  0  0  0  0  0  0
   14.6430    7.5310   24.1670 C   0  0  1  0  0  0  0  0  0  0  0  0
   14.6620    8.5070   23.0110 C   0  0  0  0  0  0  0  0  0  0  0  0
   14.9720    9.8130   23.7060 C   0  0  0  0  0  0  0  0  0  0  0  0
   14.3770    9.7410   25.0100 O   0  0  0  0  0  0  0  0  0  0  0  0
   13.9770    8.3830   25.2420 C   0  0  0  0  0  0  0  0  0  0  0  0
    9.6460    6.6550   24.4510 C   0  0  0  0  0  0  0  0  0  0  0  0
    9.7060    6.3050   23.1470 F   0  0  0  0  0  0  0  0  0  0  0  0
    8.5700    7.2700   24.9530 C   0  0  0  0  0  0  0  0  0  0  0  0
    7.3560    7.6180   24.1520 C   0  0  0  0  0  0  0  0  0  0  0  0
    7.6290    8.7090   23.2090 N   0  0  0  0  0  0  0  0  0  0  0  0
    8.2480    9.8530   23.9170 C   0  0  0  0  0  0  0  0  0  0  0  0
    8.4900   11.0370   22.9680 C   0  0  0  0  0  0  0  0  0  0  0  0
    7.2650   11.4680   22.3590 O   0  0  0  0  0  0  0  0  0  0  0  0
    6.6780   10.3850   21.6270 C   0  0  0  0  0  0  0  0  0  0  0  0
    6.3950    9.1840   22.5430 C   0  0  0  0  0  0  0  0  0  0  0  0
  1  2  2  0
  2  3  1  0
  3  4  1  0
  4  5  2  0
  5  6  1  0
  6  7  2  0
  7  8  1  0
  8  9  1  0
  9 10  2  0
 10 11  1  0
 11 12  2  0
 12 13  1  0
 12 14  1  0
 14 15  1  0
 14 16  2  0
  7 17  1  0
 17 18  2  0
 18 19  1  0
 19 20  2  0
 20 21  1  0
 21 22  2  0
 22 23  1  0
 24 23  1  6
 24 25  1  0
 25 26  1  0
 26 27  1  0
 27 28  1  0
  2 29  1  0
 29 30  1  0
 29 31  2  0
 31 32  1  0
 32 33  1  0
 33 34  1  0
 34 35  1  0
 35 36  1  0
 36 37  1  0
 37 38  1  0
 22  4  1  0
 28 24  1  0
 38 33  1  0
 20  6  1  0
 16  9  1  0
M  END
$$$$
