UOKGZPYGRJDACN-UHFFFAOYSA-N_4L23_m6
     RDKit          3D

 21 24  0  0  0  0  0  0  0  0999 V2000
   35.6410   48.1380   39.7750 C   0  0  0  0  0  0  0  0  0  0  0  0
   34.4470   47.3300   39.7430 N   0  0  0  0  0  0  0  0  0  0  0  0
   33.8630   46.9720   40.9050 N   0  0  0  0  0  0  0  0  0  0  0  0
   32.7850   46.2630   40.5220 C   0  0  0  0  0  0  0  0  0  0  0  0
   31.8590   45.7400   41.5210 C   0  0  0  0  0  0  0  0  0  0  0  0
   30.9880   44.6990   41.1910 C   0  0  0  0  0  0  0  0  0  0  0  0
   30.0890   44.2050   42.1410 C   0  0  0  0  0  0  0  0  0  0  0  0
   30.0520   44.7390   43.4380 C   0  0  0  0  0  0  0  0  0  0  0  0
   29.1520   44.2570   44.4020 C   0  0  0  0  0  0  0  0  0  0  0  0
   29.1300   44.7940   45.6890 C   0  0  0  0  0  0  0  0  0  0  0  0
   30.0070   45.8200   46.0300 C   0  0  0  0  0  0  0  0  0  0  0  0
   30.9100   46.3090   45.0840 C   0  0  0  0  0  0  0  0  0  0  0  0
   30.9430   45.7810   43.7840 C   0  0  0  0  0  0  0  0  0  0  0  0
   31.8430   46.2660   42.8200 C   0  0  0  0  0  0  0  0  0  0  0  0
   32.7240   46.1310   39.1020 C   0  0  0  0  0  0  0  0  0  0  0  0
   31.9240   45.5050   38.1360 C   0  0  0  0  0  0  0  0  0  0  0  0
   30.8450   44.6990   38.4080 N   0  0  0  0  0  0  0  0  0  0  0  0
   32.2360   45.6770   36.8330 N   0  0  0  0  0  0  0  0  0  0  0  0
   33.3110   46.4240   36.5180 C   0  0  0  0  0  0  0  0  0  0  0  0
   34.1590   47.0440   37.3520 N   0  0  0  0  0  0  0  0  0  0  0  0
   33.8080   46.8550   38.6360 C   0  0  0  0  0  0  0  0  0  0  0  0
  1  2  1  0
  2  3  1  0
  3  4  2  0
  4  5  1  0
  5  6  2  0
  6  7  1  0
  7  8  2  0
  8  9  1  0
  9 10  2  0
 10 11  1  0
 11 12  2  0
 12 13  1  0
 13 14  2  0
  4 15  1  0
 15 16  2  0
 16 17  1  0
 16 18  1  0
 18 19  2  0
 19 20  1  0
 20 21  2  0
 21  2  1  0
 14  5  1  0
 21 15  1  0
 13  8  1  0
M  END
$$$$
