UOKLODYFAVGQRH-UHFFFAOYSA-N_5U3Q_m7
     RDKit          3D

 34 36  0  0  0  0  0  0  0  0999 V2000
   39.3670  -39.2080  106.0140 C   0  0  0  0  0  0  0  0  0  0  0  0
   40.6960  -39.2650  105.3540 C   0  0  0  0  0  0  0  0  0  0  0  0
   40.7450  -39.6390  104.0180 N   0  0  0  0  0  0  0  0  0  0  0  0
   41.9890  -39.6550  103.5850 C   0  0  0  0  0  0  0  0  0  0  0  0
   42.3790  -39.9820  102.2030 C   0  0  0  0  0  0  0  0  0  0  0  0
   41.9940  -39.2060  101.1020 C   0  0  0  0  0  0  0  0  0  0  0  0
   42.3870  -39.5620   99.8060 C   0  0  0  0  0  0  0  0  0  0  0  0
   43.1660  -40.6980   99.5800 C   0  0  0  0  0  0  0  0  0  0  0  0
   43.4640  -40.9280   98.2700 O   0  0  0  0  0  0  0  0  0  0  0  0
   44.6470  -40.3450   97.7500 C   0  0  0  0  0  0  0  0  0  0  0  0
   45.3680  -39.7470   98.7190 F   0  0  0  0  0  0  0  0  0  0  0  0
   45.4050  -41.3230   97.2060 F   0  0  0  0  0  0  0  0  0  0  0  0
   44.3580  -39.4500   96.7820 F   0  0  0  0  0  0  0  0  0  0  0  0
   43.5720  -41.4660  100.6700 C   0  0  0  0  0  0  0  0  0  0  0  0
   43.1840  -41.1060  101.9680 C   0  0  0  0  0  0  0  0  0  0  0  0
   43.1590  -39.1850  104.7550 S   0  0  0  0  0  0  0  0  0  0  0  0
   41.9240  -38.9660  105.9250 C   0  0  0  0  0  0  0  0  0  0  0  0
   42.2010  -38.5240  107.2810 C   0  0  0  0  0  0  0  0  0  0  0  0
   41.9410  -37.3930  107.6840 O   0  0  0  0  0  0  0  0  0  0  0  0
   42.8000  -39.4570  108.1010 N   0  0  0  0  0  0  0  0  0  0  0  0
   43.2530  -39.1490  109.4360 C   0  0  0  0  0  0  0  0  0  0  0  0
   44.6180  -38.5140  109.3890 C   0  0  0  0  0  0  0  0  0  0  0  0
   44.8390  -37.2700  109.9890 C   0  0  0  0  0  0  0  0  0  0  0  0
   46.0940  -36.6600  109.9090 C   0  0  0  0  0  0  0  0  0  0  0  0
   47.1480  -37.2690  109.2220 C   0  0  0  0  0  0  0  0  0  0  0  0
   48.3020  -36.5430  109.2290 O   0  0  0  0  0  0  0  0  0  0  0  0
   48.7500  -35.7970  108.0960 C   0  0  0  0  0  0  0  0  0  0  0  0
   49.9210  -36.6230  107.5240 C   0  0  0  0  0  0  0  0  0  0  0  0
   47.6570  -35.7600  107.0150 C   0  0  0  0  0  0  0  0  0  0  0  0
   49.3150  -34.3890  108.3750 C   0  0  0  0  0  0  0  0  0  0  0  0
   49.8890  -33.6640  107.5740 O   0  0  0  0  0  0  0  0  0  0  0  0
   49.1120  -33.9620  109.6410 O   0  0  0  0  0  0  0  0  0  0  0  0
   46.9310  -38.5100  108.6260 C   0  0  0  0  0  0  0  0  0  0  0  0
   45.6740  -39.1260  108.7040 C   0  0  0  0  0  0  0  0  0  0  0  0
  1  2  1  0
  2  3  1  0
  3  4  2  0
  4  5  1  0
  5  6  2  0
  6  7  1  0
  7  8  2  0
  8  9  1  0
  9 10  1  0
 10 11  1  0
 10 12  1  0
 10 13  1  0
  8 14  1  0
 14 15  2  0
  4 16  1  0
 16 17  1  0
 17 18  1  0
 18 19  2  0
 18 20  1  0
 20 21  1  0
 21 22  1  0
 22 23  2  0
 23 24  1  0
 24 25  2  0
 25 26  1  0
 26 27  1  0
 27 28  1  0
 27 29  1  0
 27 30  1  0
 30 31  2  0
 30 32  1  0
 25 33  1  0
 33 34  2  0
 17  2  2  0
 34 22  1  0
 15  5  1  0
M  END
$$$$
