UQMOAGGBXALCSZ-UXHICEINSA-N_4UDW_m8
     RDKit          3D

 33 35  0  0  0  0  0  0  0  0999 V2000
  130.2730  -19.4240  163.4790 C   0  0  0  0  0  0  0  0  0  0  0  0
  129.9110  -19.8000  165.1790 S   0  0  0  0  0  0  0  0  0  0  0  0
  131.1030  -20.3470  165.7820 O   0  0  0  0  0  0  0  0  0  0  0  0
  128.6390  -20.4860  165.2500 O   0  0  0  0  0  0  0  0  0  0  0  0
  129.7220  -18.2560  165.8200 N   0  0  0  0  0  0  0  0  0  0  0  0
  130.8980  -17.3470  165.7370 C   0  0  2  0  0  0  0  0  0  0  0  0
  131.3110  -16.9130  167.1500 C   0  0  0  0  0  0  0  0  0  0  0  0
  132.8340  -16.7830  167.3690 C   0  0  0  0  0  0  0  0  0  0  0  0
  133.2800  -15.3480  167.0350 C   0  0  0  0  0  0  0  0  0  0  0  0
  134.7860  -15.1620  167.2010 C   0  0  0  0  0  0  0  0  0  0  0  0
  135.5700  -16.1750  166.3750 C   0  0  0  0  0  0  0  0  0  0  0  0
  135.1430  -17.6020  166.6980 C   0  0  0  0  0  0  0  0  0  0  0  0
  133.6360  -17.7970  166.5380 C   0  0  0  0  0  0  0  0  0  0  0  0
  130.4490  -16.1020  164.9460 C   0  0  0  0  0  0  0  0  0  0  0  0
  129.3890  -15.5380  165.2360 O   0  0  0  0  0  0  0  0  0  0  0  0
  131.2360  -15.6680  163.9070 N   0  0  0  0  0  0  0  0  0  0  0  0
  132.5570  -16.1530  163.5320 C   0  0  0  0  0  0  0  0  0  0  0  0
  132.9290  -15.3620  162.2880 C   0  0  0  0  0  0  0  0  0  0  0  0
  132.1490  -14.0630  162.4500 C   0  0  0  0  0  0  0  0  0  0  0  0
  130.8340  -14.5230  163.0820 C   0  0  1  0  0  0  0  0  0  0  0  0
  129.8050  -14.8530  161.9760 C   0  0  0  0  0  0  0  0  0  0  0  0
  129.7680  -14.2120  160.9250 O   0  0  0  0  0  0  0  0  0  0  0  0
  129.0060  -15.9450  162.2130 N   0  0  0  0  0  0  0  0  0  0  0  0
  128.0570  -16.4480  161.2550 C   0  0  0  0  0  0  0  0  0  0  0  0
  127.3500  -17.6590  161.8060 C   0  0  0  0  0  0  0  0  0  0  0  0
  127.4840  -18.9050  161.1780 C   0  0  0  0  0  0  0  0  0  0  0  0
  126.8550  -20.0400  161.7000 C   0  0  0  0  0  0  0  0  0  0  0  0
  126.0910  -19.9480  162.8710 C   0  0  0  0  0  0  0  0  0  0  0  0
  125.4070  -21.1420  163.4640 C   0  0  0  0  0  0  0  0  0  0  0  0
  125.8420  -21.6310  164.5820 N   0  0  0  0  0  0  0  0  0  0  0  0
  124.3440  -21.7340  162.8560 N   0  0  0  0  0  0  0  0  0  0  0  0
  125.9650  -18.7040  163.5050 C   0  0  0  0  0  0  0  0  0  0  0  0
  126.5930  -17.5700  162.9810 C   0  0  0  0  0  0  0  0  0  0  0  0
  1  2  1  0
  2  3  2  0
  2  4  2  0
  2  5  1  0
  5  6  1  0
  6  7  1  1
  7  8  1  0
  8  9  1  0
  9 10  1  0
 10 11  1  0
 11 12  1  0
 12 13  1  0
  6 14  1  0
 14 15  2  0
 14 16  1  0
 16 17  1  0
 17 18  1  0
 18 19  1  0
 19 20  1  0
 20 21  1  6
 21 22  2  0
 21 23  1  0
 23 24  1  0
 24 25  1  0
 25 26  2  0
 26 27  1  0
 27 28  2  0
 28 29  1  0
 29 30  2  3
 29 31  1  0
 28 32  1  0
 32 33  2  0
 13  8  1  0
 20 16  1  0
 33 25  1  0
M  END
$$$$
