UQMOAGGBXALCSZ-UXHICEINSA-N_2JKH_m6
     RDKit          3D

 33 35  0  0  0  0  0  0  0  0999 V2000
   -9.1990   12.7130   21.7770 C   0  0  0  0  0  0  0  0  0  0  0  0
   -8.1360   11.8680   20.6280 S   0  0  0  0  0  0  0  0  0  0  0  0
   -7.6040   12.8430   19.7060 O   0  0  0  0  0  0  0  0  0  0  0  0
   -8.8000   10.6680   20.1670 O   0  0  0  0  0  0  0  0  0  0  0  0
   -6.8630   11.4210   21.6330 N   0  0  0  0  0  0  0  0  0  0  0  0
   -5.5580   11.1360   20.9740 C   0  0  2  0  0  0  0  0  0  0  0  0
   -5.2490    9.6360   21.0780 C   0  0  0  0  0  0  0  0  0  0  0  0
   -5.6350    8.8070   19.8340 C   0  0  0  0  0  0  0  0  0  0  0  0
   -6.6890    7.7550   20.2240 C   0  0  0  0  0  0  0  0  0  0  0  0
   -7.0900    6.8780   19.0400 C   0  0  0  0  0  0  0  0  0  0  0  0
   -5.8770    6.2130   18.4000 C   0  0  0  0  0  0  0  0  0  0  0  0
   -4.8260    7.2430   18.0020 C   0  0  0  0  0  0  0  0  0  0  0  0
   -4.4200    8.1270   19.1800 C   0  0  0  0  0  0  0  0  0  0  0  0
   -4.4810   11.9190   21.7510 C   0  0  0  0  0  0  0  0  0  0  0  0
   -4.5550   12.0130   22.9800 O   0  0  0  0  0  0  0  0  0  0  0  0
   -3.4740   12.5260   21.0400 N   0  0  0  0  0  0  0  0  0  0  0  0
   -3.3550   13.9360   20.6970 C   0  0  0  0  0  0  0  0  0  0  0  0
   -2.0300   14.0530   19.9600 C   0  0  0  0  0  0  0  0  0  0  0  0
   -1.8440   12.6680   19.3500 C   0  0  0  0  0  0  0  0  0  0  0  0
   -2.4000   11.7360   20.4290 C   0  0  1  0  0  0  0  0  0  0  0  0
   -1.2700   11.3200   21.3990 C   0  0  0  0  0  0  0  0  0  0  0  0
   -0.3130   10.6460   21.0160 O   0  0  0  0  0  0  0  0  0  0  0  0
   -1.3690   11.8190   22.6750 N   0  0  0  0  0  0  0  0  0  0  0  0
   -0.3620   11.6090   23.6820 C   0  0  0  0  0  0  0  0  0  0  0  0
   -0.9160   10.7770   24.8100 C   0  0  0  0  0  0  0  0  0  0  0  0
   -0.1740    9.7080   25.3330 C   0  0  0  0  0  0  0  0  0  0  0  0
   -0.6680    8.9500   26.3990 C   0  0  0  0  0  0  0  0  0  0  0  0
   -1.9090    9.2600   26.9700 C   0  0  0  0  0  0  0  0  0  0  0  0
   -2.4690    8.4750   28.1180 C   0  0  0  0  0  0  0  0  0  0  0  0
   -3.6060    8.8250   28.6290 N   0  0  0  0  0  0  0  0  0  0  0  0
   -1.8110    7.4080   28.6440 N   0  0  0  0  0  0  0  0  0  0  0  0
   -2.6460   10.3340   26.4540 C   0  0  0  0  0  0  0  0  0  0  0  0
   -2.1530   11.0900   25.3870 C   0  0  0  0  0  0  0  0  0  0  0  0
  1  2  1  0
  2  3  2  0
  2  4  2  0
  2  5  1  0
  5  6  1  0
  6  7  1  1
  7  8  1  0
  8  9  1  0
  9 10  1  0
 10 11  1  0
 11 12  1  0
 12 13  1  0
  6 14  1  0
 14 15  2  0
 14 16  1  0
 16 17  1  0
 17 18  1  0
 18 19  1  0
 19 20  1  0
 20 21  1  1
 21 22  2  0
 21 23  1  0
 23 24  1  0
 24 25  1  0
 25 26  2  0
 26 27  1  0
 27 28  2  0
 28 29  1  0
 29 30  2  3
 29 31  1  0
 28 32  1  0
 32 33  2  0
 13  8  1  0
 20 16  1  0
 33 25  1  0
M  END
$$$$
