UUXMKUDVTHMKFM-UHFFFAOYSA-N_4BDS_m7
     RDKit          3D

 35 37  0  0  0  0  0  0  0  0999 V2000
  136.4160  118.3920   40.1130 C   0  0  0  0  0  0  0  0  0  0  0  0
  136.6350  117.4810   41.1820 O   0  0  0  0  0  0  0  0  0  0  0  0
  137.5380  116.4760   40.9580 C   0  0  0  0  0  0  0  0  0  0  0  0
  137.0380  115.3990   40.2280 C   0  0  0  0  0  0  0  0  0  0  0  0
  137.8340  114.2920   39.9160 C   0  0  0  0  0  0  0  0  0  0  0  0
  139.1640  114.2880   40.3620 C   0  0  0  0  0  0  0  0  0  0  0  0
  139.6970  115.3530   41.0970 C   0  0  0  0  0  0  0  0  0  0  0  0
  138.8660  116.4590   41.3950 C   0  0  0  0  0  0  0  0  0  0  0  0
  141.0610  115.0380   41.3890 C   0  0  0  0  0  0  0  0  0  0  0  0
  142.0330  115.8260   42.1240 C   0  0  0  0  0  0  0  0  0  0  0  0
  141.7690  116.5110   43.1080 O   0  0  0  0  0  0  0  0  0  0  0  0
  141.3170  113.8010   40.8270 C   0  0  0  0  0  0  0  0  0  0  0  0
  140.1700  113.3540   40.2200 N   0  0  0  0  0  0  0  0  0  0  0  0
  140.0760  112.0910   39.5050 C   0  0  0  0  0  0  0  0  0  0  0  0
  140.0770  112.2450   37.9810 C   0  0  0  0  0  0  0  0  0  0  0  0
  138.7330  111.8810   37.3420 C   0  0  0  0  0  0  0  0  0  0  0  0
  137.9390  110.8370   38.1350 C   0  0  0  0  0  0  0  0  0  0  0  0
  136.5620  111.3270   38.5920 C   0  0  0  0  0  0  0  0  0  0  0  0
  135.6470  110.1980   39.0800 C   0  0  0  0  0  0  0  0  0  0  0  0
  135.3260  110.1900   40.5780 C   0  0  0  0  0  0  0  0  0  0  0  0
  136.3380  110.9690   41.4210 C   0  0  0  0  0  0  0  0  0  0  0  0
  135.7320  111.6100   42.6750 C   0  0  0  0  0  0  0  0  0  0  0  0
  135.4970  113.1170   42.5420 C   0  0  0  0  0  0  0  0  0  0  0  0
  134.5250  113.6730   43.5910 C   0  0  0  0  0  0  0  0  0  0  0  0
  134.0650  115.1210   43.3600 C   0  0  0  0  0  0  0  0  0  0  0  0
  132.8410  115.2480   42.5500 N   0  0  0  0  0  0  0  0  0  0  0  0
  131.6930  115.6360   43.3780 C   0  0  0  0  0  0  0  0  0  0  0  0
  133.0580  116.2270   41.4660 C   0  0  0  0  0  0  0  0  0  0  0  0
  133.4100  115.5920   40.1360 C   0  0  0  0  0  0  0  0  0  0  0  0
  133.7950  116.3860   39.0450 C   0  0  0  0  0  0  0  0  0  0  0  0
  134.1310  115.7970   37.8250 C   0  0  0  0  0  0  0  0  0  0  0  0
  134.0850  114.4150   37.6910 C   0  0  0  0  0  0  0  0  0  0  0  0
  134.4160  113.8830   36.4790 O   0  0  0  0  0  0  0  0  0  0  0  0
  133.7130  113.6060   38.7590 C   0  0  0  0  0  0  0  0  0  0  0  0
  133.3790  114.1960   39.9810 C   0  0  0  0  0  0  0  0  0  0  0  0
  1  2  1  0
  2  3  1  0
  3  4  2  0
  4  5  1  0
  5  6  2  0
  6  7  1  0
  7  8  2  0
  7  9  1  0
  9 10  1  0
 10 11  2  0
  9 12  2  0
 12 13  1  0
 13 14  1  0
 14 15  1  0
 15 16  1  0
 16 17  1  0
 17 18  1  0
 18 19  1  0
 19 20  1  0
 20 21  1  0
 21 22  1  0
 22 23  1  0
 23 24  1  0
 24 25  1  0
 25 26  1  0
 26 27  1  0
 26 28  1  0
 28 29  1  0
 29 30  2  0
 30 31  1  0
 31 32  2  0
 32 33  1  0
 32 34  1  0
 34 35  2  0
  8  3  1  0
 35 29  1  0
 13  6  1  0
M  END
$$$$
