UWOLGNVHETVCHA-FTJBHMTQSA-N_2JKH_m1
     RDKit          3D

 41 44  0  0  0  0  0  0  0  0999 V2000
   -8.8930   10.3360   21.1650 C   0  0  0  0  0  0  0  0  0  0  0  0
   -8.4590   11.0440   19.9110 C   0  0  0  0  0  0  0  0  0  0  0  0
   -8.5060   10.3360   18.7020 C   0  0  0  0  0  0  0  0  0  0  0  0
   -8.1000   10.9470   17.5290 C   0  0  0  0  0  0  0  0  0  0  0  0
   -8.1090   10.2630   16.3320 N   0  0  0  0  0  0  0  0  0  0  0  0
   -7.6210   12.1950   17.5030 N   0  0  0  0  0  0  0  0  0  0  0  0
   -7.5600   12.8920   18.6690 C   0  0  0  0  0  0  0  0  0  0  0  0
   -7.0120   14.2820   18.5250 C   0  0  0  0  0  0  0  0  0  0  0  0
   -7.9860   12.3730   19.9060 C   0  0  0  0  0  0  0  0  0  0  0  0
   -7.9240   13.2020   21.1700 C   0  0  0  0  0  0  0  0  0  0  0  0
   -6.6440   13.0970   21.8350 N   0  0  0  0  0  0  0  0  0  0  0  0
   -6.4930   12.6020   23.1090 C   0  0  0  0  0  0  0  0  0  0  0  0
   -7.4370   12.2040   23.7910 O   0  0  0  0  0  0  0  0  0  0  0  0
   -5.0720   12.7140   23.7060 C   0  0  2  0  0  0  0  0  0  0  0  0
   -5.1590   12.9770   25.2110 C   0  0  0  0  0  0  0  0  0  0  0  0
   -5.1550   14.4990   25.3030 C   0  0  0  0  0  0  0  0  0  0  0  0
   -4.1990   14.9120   24.1930 C   0  0  0  0  0  0  0  0  0  0  0  0
   -4.2850   13.8460   23.2050 N   0  0  0  0  0  0  0  0  0  0  0  0
   -3.6450   13.7670   21.9900 C   0  0  0  0  0  0  0  0  0  0  0  0
   -3.4110   14.7730   21.3130 O   0  0  0  0  0  0  0  0  0  0  0  0
   -3.1860   12.3880   21.4820 C   0  0  1  0  0  0  0  0  0  0  0  0
   -3.6680   12.1840   20.0360 C   0  0  0  0  0  0  0  0  0  0  0  0
   -4.3170   10.8370   19.8200 C   0  0  0  0  0  0  0  0  0  0  0  0
   -4.8670   10.1310   20.8950 C   0  0  0  0  0  0  0  0  0  0  0  0
   -5.5000    8.9040   20.6850 C   0  0  0  0  0  0  0  0  0  0  0  0
   -5.5940    8.3700   19.3960 C   0  0  0  0  0  0  0  0  0  0  0  0
   -6.4030    6.8550   19.2130 Cl  0  0  0  0  0  0  0  0  0  0  0  0
   -5.0470    9.0660   18.3150 C   0  0  0  0  0  0  0  0  0  0  0  0
   -5.1350    8.4770   16.6940 Cl  0  0  0  0  0  0  0  0  0  0  0  0
   -4.4090   10.2930   18.5290 C   0  0  0  0  0  0  0  0  0  0  0  0
   -1.6880   12.4020   21.4810 N   0  0  0  0  0  0  0  0  0  0  0  0
   -0.9200   11.2680   22.4770 S   0  0  0  0  0  0  0  0  0  0  0  0
   -1.6990   10.0590   22.3360 O   0  0  0  0  0  0  0  0  0  0  0  0
    0.4910   11.3090   22.1570 O   0  0  0  0  0  0  0  0  0  0  0  0
   -1.2150   11.9830   24.1020 C   0  0  0  0  0  0  0  0  0  0  0  0
   -1.2660   10.8740   25.1200 C   0  0  0  0  0  0  0  0  0  0  0  0
   -2.3750   10.7330   25.9650 C   0  0  0  0  0  0  0  0  0  0  0  0
   -2.4130    9.7150   26.9190 C   0  0  0  0  0  0  0  0  0  0  0  0
   -1.3450    8.8300   27.0370 C   0  0  0  0  0  0  0  0  0  0  0  0
   -0.2370    8.9600   26.2030 C   0  0  0  0  0  0  0  0  0  0  0  0
   -0.1950    9.9770   25.2490 C   0  0  0  0  0  0  0  0  0  0  0  0
  1  2  1  0
  2  3  2  0
  3  4  1  0
  4  5  1  0
  4  6  2  0
  6  7  1  0
  7  8  1  0
  7  9  2  0
  9 10  1  0
 10 11  1  0
 11 12  1  0
 12 13  2  0
 14 12  1  6
 14 15  1  0
 15 16  1  0
 16 17  1  0
 17 18  1  0
 18 19  1  0
 19 20  2  0
 19 21  1  0
 21 22  1  6
 22 23  1  0
 23 24  2  0
 24 25  1  0
 25 26  2  0
 26 27  1  0
 26 28  1  0
 28 29  1  0
 28 30  2  0
 21 31  1  0
 31 32  1  0
 32 33  2  0
 32 34  2  0
 32 35  1  0
 35 36  1  0
 36 37  2  0
 37 38  1  0
 38 39  2  0
 39 40  1  0
 40 41  2  0
  9  2  1  0
 18 14  1  0
 30 23  1  0
 41 36  1  0
M  END
$$$$
