UXZLCNQSQUXGBS-JOCQHMNTSA-N_6N7A_m8
     RDKit          3D

 24 27  0  0  0  0  0  0  0  0999 V2000
    3.1740  -27.3100   21.9210 C   0  0  0  0  0  0  0  0  0  0  0  0
    4.3300  -27.2880   22.8270 N   0  0  0  0  0  0  0  0  0  0  0  0
    4.7860  -28.6570   23.0610 C   0  0  0  0  0  0  0  0  0  0  0  0
    5.3750  -26.4100   22.2730 C   0  0  0  0  0  0  0  0  0  0  0  0
    5.1540  -24.8780   22.3480 C   0  0  2  0  0  0  0  0  0  0  0  0
    5.0090  -24.2020   20.9740 C   0  0  0  0  0  0  0  0  0  0  0  0
    4.7100  -22.7070   21.1180 C   0  0  0  0  0  0  0  0  0  0  0  0
    5.7820  -22.0090   21.9730 C   0  0  1  0  0  0  0  0  0  0  0  0
    5.5070  -20.5770   22.0970 N   0  0  0  0  0  0  0  0  0  0  0  0
    4.4070  -20.0890   22.9010 C   0  0  0  0  0  0  0  0  0  0  0  0
    3.6930  -19.1070   22.1500 N   0  0  0  0  0  0  0  0  0  0  0  0
    4.3340  -18.1420   21.4250 C   0  0  0  0  0  0  0  0  0  0  0  0
    3.7340  -17.1730   20.9750 O   0  0  0  0  0  0  0  0  0  0  0  0
    5.7760  -18.3430   21.2130 C   0  0  0  0  0  0  0  0  0  0  0  0
    6.5310  -17.3300   20.6350 C   0  0  0  0  0  0  0  0  0  0  0  0
    7.8530  -17.4060   20.3720 N   0  0  0  0  0  0  0  0  0  0  0  0
    8.3830  -18.5880   20.7340 C   0  0  0  0  0  0  0  0  0  0  0  0
    9.7090  -18.8860   20.5800 N   0  0  0  0  0  0  0  0  0  0  0  0
    9.9650  -20.1380   21.0690 C   0  0  0  0  0  0  0  0  0  0  0  0
    8.7730  -20.6510   21.5350 C   0  0  0  0  0  0  0  0  0  0  0  0
    7.7400  -19.6870   21.3100 C   0  0  0  0  0  0  0  0  0  0  0  0
    6.3440  -19.5900   21.5600 C   0  0  0  0  0  0  0  0  0  0  0  0
    5.9000  -22.6700   23.3520 C   0  0  0  0  0  0  0  0  0  0  0  0
    6.1960  -24.1650   23.2260 C   0  0  0  0  0  0  0  0  0  0  0  0
  1  2  1  0
  2  3  1  0
  2  4  1  0
  5  4  1  1
  5  6  1  0
  6  7  1  0
  7  8  1  0
  8  9  1  6
  9 10  1  0
 10 11  1  0
 11 12  1  0
 12 13  2  0
 12 14  1  0
 14 15  2  0
 15 16  1  0
 16 17  2  0
 17 18  1  0
 18 19  1  0
 19 20  2  0
 20 21  1  0
 21 22  2  0
  8 23  1  0
 23 24  1  0
 24  5  1  0
 22  9  1  0
 22 14  1  0
 21 17  1  0
M  END
$$$$
