UXZLCNQSQUXGBS-JOCQHMNTSA-N_3LXP_m4
     RDKit          3D

 24 27  0  0  0  0  0  0  0  0999 V2000
   -6.3830   20.2540  -32.0020 C   0  0  0  0  0  0  0  0  0  0  0  0
   -5.0120   20.7510  -32.1770 N   0  0  0  0  0  0  0  0  0  0  0  0
   -5.0550   22.1670  -32.5360 C   0  0  0  0  0  0  0  0  0  0  0  0
   -4.2290   20.4800  -30.9590 C   0  0  0  0  0  0  0  0  0  0  0  0
   -3.7480   21.6900  -30.1180 C   0  0  2  0  0  0  0  0  0  0  0  0
   -2.2410   21.6760  -29.8110 C   0  0  0  0  0  0  0  0  0  0  0  0
   -1.8160   22.9350  -29.0530 C   0  0  0  0  0  0  0  0  0  0  0  0
   -2.6450   23.1140  -27.7690 C   0  0  1  0  0  0  0  0  0  0  0  0
   -2.2280   24.3080  -27.0330 N   0  0  0  0  0  0  0  0  0  0  0  0
   -2.9570   25.5530  -27.1440 C   0  0  0  0  0  0  0  0  0  0  0  0
   -2.0230   26.6130  -27.3440 N   0  0  0  0  0  0  0  0  0  0  0  0
   -0.8620   26.7010  -26.6290 C   0  0  0  0  0  0  0  0  0  0  0  0
   -0.1800   27.7190  -26.6340 O   0  0  0  0  0  0  0  0  0  0  0  0
   -0.4800   25.5020  -25.8640 C   0  0  0  0  0  0  0  0  0  0  0  0
    0.5890   25.5650  -24.9810 C   0  0  0  0  0  0  0  0  0  0  0  0
    1.0440   24.5300  -24.2440 N   0  0  0  0  0  0  0  0  0  0  0  0
    0.3420   23.4020  -24.4510 C   0  0  0  0  0  0  0  0  0  0  0  0
    0.6090   22.2290  -23.8010 N   0  0  0  0  0  0  0  0  0  0  0  0
   -0.2870   21.2690  -24.1840 C   0  0  0  0  0  0  0  0  0  0  0  0
   -1.1360   21.8420  -25.1060 C   0  0  0  0  0  0  0  0  0  0  0  0
   -0.7400   23.2010  -25.3130 C   0  0  0  0  0  0  0  0  0  0  0  0
   -1.1880   24.3010  -26.0930 C   0  0  0  0  0  0  0  0  0  0  0  0
   -4.1450   23.1560  -28.0860 C   0  0  0  0  0  0  0  0  0  0  0  0
   -4.5850   21.9050  -28.8470 C   0  0  0  0  0  0  0  0  0  0  0  0
  1  2  1  0
  2  3  1  0
  2  4  1  0
  5  4  1  6
  5  6  1  0
  6  7  1  0
  7  8  1  0
  8  9  1  1
  9 10  1  0
 10 11  1  0
 11 12  1  0
 12 13  2  0
 12 14  1  0
 14 15  2  0
 15 16  1  0
 16 17  2  0
 17 18  1  0
 18 19  1  0
 19 20  2  0
 20 21  1  0
 21 22  2  0
  8 23  1  0
 23 24  1  0
 24  5  1  0
 22  9  1  0
 22 14  1  0
 21 17  1  0
M  END
$$$$
