UYSGAWMQMRAGJH-VLXSWZPNSA-N_6N7A_m7
     RDKit          3D

 26 29  0  0  0  0  0  0  0  0999 V2000
    2.5690  -16.7360   21.1290 C   0  0  0  0  0  0  0  0  0  0  0  0
    1.9900  -17.5710   20.0820 N   0  0  0  0  0  0  0  0  0  0  0  0
    1.2470  -16.8970   19.0890 C   0  0  0  0  0  0  0  0  0  0  0  0
    1.8320  -16.7400   17.8650 N   0  0  0  0  0  0  0  0  0  0  0  0
    1.1760  -16.0890   16.8880 C   0  0  0  0  0  0  0  0  0  0  0  0
   -0.0460  -15.5450   16.9360 N   0  0  0  0  0  0  0  0  0  0  0  0
   -0.6110  -15.7340   18.1360 C   0  0  0  0  0  0  0  0  0  0  0  0
   -1.8680  -15.3020   18.4600 N   0  0  0  0  0  0  0  0  0  0  0  0
   -2.1670  -15.6690   19.7440 C   0  0  0  0  0  0  0  0  0  0  0  0
   -1.0740  -16.3440   20.2460 C   0  0  0  0  0  0  0  0  0  0  0  0
   -0.0630  -16.3780   19.2370 C   0  0  0  0  0  0  0  0  0  0  0  0
    2.5450  -18.8860   19.8760 C   0  0  2  0  0  0  0  0  0  0  0  0
    2.4920  -19.8030   21.1270 C   0  0  0  0  0  0  0  0  0  0  0  0
    3.9140  -20.2860   20.7610 C   0  0  1  0  0  0  0  0  0  0  0  0
    4.0020  -21.5480   19.9510 N   0  0  0  0  0  0  0  0  0  0  0  0
    5.3180  -22.5790   20.0410 S   0  0  0  0  0  0  0  0  0  0  0  0
    5.1840  -23.5380   18.9730 O   0  0  0  0  0  0  0  0  0  0  0  0
    6.5220  -21.8130   20.2460 O   0  0  0  0  0  0  0  0  0  0  0  0
    4.9350  -23.3500   21.4850 N   0  0  0  0  0  0  0  0  0  0  0  0
    5.9090  -23.1870   22.6000 C   0  0  0  0  0  0  0  0  0  0  0  0
    5.8100  -24.4860   23.3860 C   0  0  0  0  0  0  0  0  0  0  0  0
    5.6080  -25.5130   22.2840 C   0  0  1  0  0  0  0  0  0  0  0  0
    5.0780  -26.7810   22.7830 C   0  0  0  0  0  0  0  0  0  0  0  0
    4.6570  -27.7860   23.1790 N   0  0  0  0  0  0  0  0  0  0  0  0
    4.6250  -24.8070   21.3570 C   0  0  0  0  0  0  0  0  0  0  0  0
    4.0880  -18.9480   20.0090 C   0  0  0  0  0  0  0  0  0  0  0  0
  1  2  1  0
  2  3  1  0
  3  4  2  0
  4  5  1  0
  5  6  2  0
  6  7  1  0
  7  8  1  0
  8  9  1  0
  9 10  2  0
 10 11  1  0
 12  2  1  6
 12 13  1  0
 13 14  1  0
 14 15  1  1
 15 16  1  0
 16 17  2  0
 16 18  2  0
 16 19  1  0
 19 20  1  0
 20 21  1  0
 21 22  1  0
 22 23  1  1
 23 24  3  0
 22 25  1  0
 14 26  1  0
 11  3  1  0
 26 12  1  0
 11  7  2  0
 25 19  1  0
M  END
$$$$
