UYXYRAKKUCLNAF-GOSISDBHSA-N_3RCD_m8
     RDKit          3D

 37 42  0  0  0  0  0  0  0  0999 V2000
   20.3440    6.1280   23.3830 C   0  0  0  0  0  0  0  0  0  0  0  0
   19.9030    7.3740   23.6080 C   0  0  0  0  0  0  0  0  0  0  0  0
   18.7530    7.9150   22.8330 C   0  0  0  0  0  0  0  0  0  0  0  0
   18.7450    9.0990   22.5030 O   0  0  0  0  0  0  0  0  0  0  0  0
   17.7410    7.0280   22.5000 N   0  0  0  0  0  0  0  0  0  0  0  0
   17.6710    6.5330   21.1250 C   0  0  0  0  0  0  0  0  0  0  0  0
   16.2820    6.7400   20.5260 C   0  0  0  0  0  0  0  0  0  0  0  0
   15.1990    6.1350   21.4180 C   0  0  0  0  0  0  0  0  0  0  0  0
   15.3020    6.6910   22.8450 C   0  0  1  0  0  0  0  0  0  0  0  0
   14.2800    6.1210   23.7100 N   0  0  0  0  0  0  0  0  0  0  0  0
   14.6270    5.2970   24.7210 N   0  0  0  0  0  0  0  0  0  0  0  0
   13.4550    4.9740   25.2980 C   0  0  0  0  0  0  0  0  0  0  0  0
   13.4360    4.1270   26.4870 C   0  0  0  0  0  0  0  0  0  0  0  0
   12.6400    4.4780   27.5850 C   0  0  0  0  0  0  0  0  0  0  0  0
   12.6110    3.6680   28.7180 C   0  0  0  0  0  0  0  0  0  0  0  0
   13.3620    2.4900   28.7470 C   0  0  0  0  0  0  0  0  0  0  0  0
   13.3350    1.7110   29.8790 O   0  0  0  0  0  0  0  0  0  0  0  0
   12.1140    1.4580   30.4880 C   0  0  0  0  0  0  0  0  0  0  0  0
   12.1730    1.6000   31.9410 C   0  0  0  0  0  0  0  0  0  0  0  0
   11.0700    1.3720   32.6730 C   0  0  0  0  0  0  0  0  0  0  0  0
    9.8850    1.0030   32.0400 N   0  0  0  0  0  0  0  0  0  0  0  0
    8.6780    0.7310   32.5940 N   0  0  0  0  0  0  0  0  0  0  0  0
    7.9360    0.4380   31.5260 C   0  0  0  0  0  0  0  0  0  0  0  0
    8.5720    0.4990   30.3200 N   0  0  0  0  0  0  0  0  0  0  0  0
    9.7920    0.8530   30.6540 C   0  0  0  0  0  0  0  0  0  0  0  0
   10.9620    1.0910   29.8770 C   0  0  0  0  0  0  0  0  0  0  0  0
   14.1820    2.1260   27.6700 C   0  0  0  0  0  0  0  0  0  0  0  0
   14.9900    0.8620   27.6980 C   0  0  0  0  0  0  0  0  0  0  0  0
   14.1930    2.9460   26.5310 C   0  0  0  0  0  0  0  0  0  0  0  0
   12.3520    5.5540   24.6050 C   0  0  0  0  0  0  0  0  0  0  0  0
   10.9520    5.5570   24.6630 C   0  0  0  0  0  0  0  0  0  0  0  0
   10.1990    4.8280   25.5520 N   0  0  0  0  0  0  0  0  0  0  0  0
   10.2720    6.3080   23.7710 N   0  0  0  0  0  0  0  0  0  0  0  0
   10.9630    7.0060   22.8500 C   0  0  0  0  0  0  0  0  0  0  0  0
   12.2940    7.0600   22.6840 N   0  0  0  0  0  0  0  0  0  0  0  0
   12.9300    6.3070   23.5970 C   0  0  0  0  0  0  0  0  0  0  0  0
   16.7180    6.4920   23.4130 C   0  0  0  0  0  0  0  0  0  0  0  0
  1  2  2  0
  2  3  1  0
  3  4  2  0
  3  5  1  0
  5  6  1  0
  6  7  1  0
  7  8  1  0
  8  9  1  0
  9 10  1  1
 10 11  1  0
 11 12  2  0
 12 13  1  0
 13 14  2  0
 14 15  1  0
 15 16  2  0
 16 17  1  0
 17 18  1  0
 18 19  1  0
 19 20  2  0
 20 21  1  0
 21 22  1  0
 22 23  2  0
 23 24  1  0
 24 25  2  0
 25 26  1  0
 16 27  1  0
 27 28  1  0
 27 29  2  0
 12 30  1  0
 30 31  2  0
 31 32  1  0
 31 33  1  0
 33 34  2  0
 34 35  1  0
 35 36  2  0
  9 37  1  0
 37  5  1  0
 36 10  1  0
 29 13  1  0
 36 30  1  0
 26 18  2  0
 25 21  1  0
M  END
$$$$
