VAHCPZHCLNBIBJ-UHFFFAOYSA-N_6N7A_m7
     RDKit          3D

 27 30  0  0  0  0  0  0  0  0999 V2000
    5.0060  -28.9110   23.0630 C   0  0  0  0  0  0  0  0  0  0  0  0
    5.3910  -27.6210   22.6090 O   0  0  0  0  0  0  0  0  0  0  0  0
    4.4100  -26.8260   22.0830 C   0  0  0  0  0  0  0  0  0  0  0  0
    3.1070  -27.2230   21.7870 C   0  0  0  0  0  0  0  0  0  0  0  0
    2.2050  -26.3030   21.2500 C   0  0  0  0  0  0  0  0  0  0  0  0
    2.6070  -24.9920   21.0100 C   0  0  0  0  0  0  0  0  0  0  0  0
    1.7080  -24.1390   20.4920 F   0  0  0  0  0  0  0  0  0  0  0  0
    3.9080  -24.5660   21.2960 C   0  0  0  0  0  0  0  0  0  0  0  0
    4.3570  -23.1920   21.0530 C   0  0  0  0  0  0  0  0  0  0  0  0
    5.2700  -22.5380   21.7530 N   0  0  0  0  0  0  0  0  0  0  0  0
    5.3820  -21.2850   21.1800 C   0  0  0  0  0  0  0  0  0  0  0  0
    6.1950  -20.1700   21.5090 C   0  0  0  0  0  0  0  0  0  0  0  0
    7.1460  -20.1360   22.5340 N   0  0  0  0  0  0  0  0  0  0  0  0
    8.4590  -20.7390   22.3760 C   0  0  0  0  0  0  0  0  0  0  0  0
    8.4120  -22.2270   22.7580 C   0  0  0  0  0  0  0  0  0  0  0  0
    9.5750  -22.6180   23.6840 C   0  0  0  0  0  0  0  0  0  0  0  0
    9.5900  -24.1230   23.9490 C   0  0  0  0  0  0  0  0  0  0  0  0
    9.6450  -24.8950   22.7070 N   0  0  0  0  0  0  0  0  0  0  0  0
    8.5020  -24.5850   21.8470 C   0  0  0  0  0  0  0  0  0  0  0  0
    8.4440  -23.1010   21.4940 C   0  0  0  0  0  0  0  0  0  0  0  0
    6.0190  -19.0550   20.6560 C   0  0  0  0  0  0  0  0  0  0  0  0
    6.9320  -17.6020   20.8980 Cl  0  0  0  0  0  0  0  0  0  0  0  0
    5.0980  -19.0920   19.6070 C   0  0  0  0  0  0  0  0  0  0  0  0
    4.3040  -20.1420   19.2830 N   0  0  0  0  0  0  0  0  0  0  0  0
    4.5080  -21.1840   20.1070 C   0  0  0  0  0  0  0  0  0  0  0  0
    3.8750  -22.3900   20.0440 N   0  0  0  0  0  0  0  0  0  0  0  0
    4.8010  -25.5040   21.8350 C   0  0  0  0  0  0  0  0  0  0  0  0
  1  2  1  0
  2  3  1  0
  3  4  2  0
  4  5  1  0
  5  6  2  0
  6  7  1  0
  6  8  1  0
  8  9  1  0
  9 10  2  0
 10 11  1  0
 11 12  2  0
 12 13  1  0
 13 14  1  0
 14 15  1  0
 15 16  1  0
 16 17  1  0
 17 18  1  0
 18 19  1  0
 19 20  1  0
 12 21  1  0
 21 22  1  0
 21 23  2  0
 23 24  1  0
 24 25  2  0
 25 26  1  0
  8 27  2  0
 27  3  1  0
 26  9  1  0
 25 11  1  0
 20 15  1  0
M  END
$$$$
