VAHCPZHCLNBIBJ-UHFFFAOYSA-N_6N7A_m5
     RDKit          3D

 27 30  0  0  0  0  0  0  0  0999 V2000
    2.8200  -24.1030   20.4100 C   0  0  0  0  0  0  0  0  0  0  0  0
    2.0320  -25.1520   20.9570 O   0  0  0  0  0  0  0  0  0  0  0  0
    2.6880  -26.2930   21.3300 C   0  0  0  0  0  0  0  0  0  0  0  0
    2.2400  -27.5980   21.1270 C   0  0  0  0  0  0  0  0  0  0  0  0
    3.0140  -28.6750   21.5630 C   0  0  0  0  0  0  0  0  0  0  0  0
    4.2330  -28.4450   22.1980 C   0  0  0  0  0  0  0  0  0  0  0  0
    4.9470  -29.5080   22.6010 F   0  0  0  0  0  0  0  0  0  0  0  0
    4.7060  -27.1470   22.4150 C   0  0  0  0  0  0  0  0  0  0  0  0
    5.9840  -26.8780   23.0810 C   0  0  0  0  0  0  0  0  0  0  0  0
    6.8030  -25.8720   22.8130 N   0  0  0  0  0  0  0  0  0  0  0  0
    7.8780  -26.0010   23.6730 C   0  0  0  0  0  0  0  0  0  0  0  0
    9.0500  -25.2190   23.8360 C   0  0  0  0  0  0  0  0  0  0  0  0
    9.3480  -24.0490   23.1280 N   0  0  0  0  0  0  0  0  0  0  0  0
    8.6510  -22.8020   23.3910 C   0  0  0  0  0  0  0  0  0  0  0  0
    7.6750  -22.4850   22.2470 C   0  0  0  0  0  0  0  0  0  0  0  0
    8.1380  -21.2770   21.4150 C   0  0  0  0  0  0  0  0  0  0  0  0
    7.0950  -20.8950   20.3670 C   0  0  0  0  0  0  0  0  0  0  0  0
    5.7880  -20.6280   20.9690 N   0  0  0  0  0  0  0  0  0  0  0  0
    5.3020  -21.7970   21.7030 C   0  0  0  0  0  0  0  0  0  0  0  0
    6.2700  -22.2150   22.8080 C   0  0  0  0  0  0  0  0  0  0  0  0
    9.9180  -25.6840   24.8510 C   0  0  0  0  0  0  0  0  0  0  0  0
   11.3980  -24.8530   25.2010 Cl  0  0  0  0  0  0  0  0  0  0  0  0
    9.6110  -26.8300   25.5880 C   0  0  0  0  0  0  0  0  0  0  0  0
    8.5030  -27.5980   25.4410 N   0  0  0  0  0  0  0  0  0  0  0  0
    7.6990  -27.1180   24.4770 C   0  0  0  0  0  0  0  0  0  0  0  0
    6.5070  -27.6530   24.0900 N   0  0  0  0  0  0  0  0  0  0  0  0
    3.9140  -26.0780   21.9720 C   0  0  0  0  0  0  0  0  0  0  0  0
  1  2  1  0
  2  3  1  0
  3  4  2  0
  4  5  1  0
  5  6  2  0
  6  7  1  0
  6  8  1  0
  8  9  1  0
  9 10  2  0
 10 11  1  0
 11 12  2  0
 12 13  1  0
 13 14  1  0
 14 15  1  0
 15 16  1  0
 16 17  1  0
 17 18  1  0
 18 19  1  0
 19 20  1  0
 12 21  1  0
 21 22  1  0
 21 23  2  0
 23 24  1  0
 24 25  2  0
 25 26  1  0
  8 27  2  0
 27  3  1  0
 26  9  1  0
 25 11  1  0
 20 15  1  0
M  END
$$$$
