VDJZDGBZCZVZJP-UHFFFAOYSA-N_4UDW_m6
     RDKit          3D

 33 34  0  0  0  0  0  0  0  0999 V2000
  125.6990  -16.5350  164.2600 N   0  0  0  0  0  0  0  0  0  0  0  0
  125.3510  -15.4030  163.4130 C   0  0  0  0  0  0  0  0  0  0  0  0
  125.3900  -14.1040  164.1850 C   0  0  0  0  0  0  0  0  0  0  0  0
  124.5410  -13.9610  165.3000 C   0  0  0  0  0  0  0  0  0  0  0  0
  124.5130  -12.7740  166.0360 C   0  0  0  0  0  0  0  0  0  0  0  0
  125.3290  -11.7130  165.6640 C   0  0  0  0  0  0  0  0  0  0  0  0
  125.2800  -10.2400  166.5550 Cl  0  0  0  0  0  0  0  0  0  0  0  0
  126.1780  -11.8300  164.5640 C   0  0  0  0  0  0  0  0  0  0  0  0
  126.2250  -13.0220  163.8140 C   0  0  0  0  0  0  0  0  0  0  0  0
  127.1090  -13.0540  162.5880 C   0  0  0  0  0  0  0  0  0  0  0  0
  128.4830  -13.2550  162.9630 N   0  0  0  0  0  0  0  0  0  0  0  0
  129.3810  -13.9140  162.1560 C   0  0  0  0  0  0  0  0  0  0  0  0
  129.0920  -14.3930  161.0630 O   0  0  0  0  0  0  0  0  0  0  0  0
  130.7790  -14.0320  162.7690 C   0  0  0  0  0  0  0  0  0  0  0  0
  130.7180  -14.7970  164.0010 N   0  0  0  0  0  0  0  0  0  0  0  0
  131.2160  -16.0750  164.1020 C   0  0  0  0  0  0  0  0  0  0  0  0
  131.6400  -16.6850  163.1210 O   0  0  0  0  0  0  0  0  0  0  0  0
  131.1210  -16.7060  165.5140 C   0  0  1  0  0  0  0  0  0  0  0  0
  131.2570  -18.2390  165.4730 C   0  0  0  0  0  0  0  0  0  0  0  0
  129.9520  -18.9980  165.7780 C   0  0  0  0  0  0  0  0  0  0  0  0
  129.3360  -19.6140  164.5510 C   0  0  0  0  0  0  0  0  0  0  0  0
  130.0180  -19.6690  163.3260 C   0  0  0  0  0  0  0  0  0  0  0  0
  129.4140  -20.2470  162.2130 C   0  0  0  0  0  0  0  0  0  0  0  0
  128.1330  -20.7690  162.3110 C   0  0  0  0  0  0  0  0  0  0  0  0
  127.4640  -20.7090  163.5320 C   0  0  0  0  0  0  0  0  0  0  0  0
  128.0450  -20.1360  164.6540 N   0  0  0  0  0  0  0  0  0  0  0  0
  127.3890  -20.0860  165.7480 O   0  0  0  0  0  0  0  0  0  0  0  0
  132.0850  -16.1190  166.4370 N   0  0  0  0  0  0  0  0  0  0  0  0
  133.4400  -16.0960  166.2200 C   0  0  0  0  0  0  0  0  0  0  0  0
  133.9980  -16.6260  165.2690 O   0  0  0  0  0  0  0  0  0  0  0  0
  134.2420  -15.3690  167.3210 C   0  0  0  0  0  0  0  0  0  0  0  0
  133.7550  -14.7450  168.2430 O   0  0  0  0  0  0  0  0  0  0  0  0
  135.5620  -15.5290  167.1510 O   0  0  0  0  0  0  0  0  0  0  0  0
  1  2  1  0
  2  3  1  0
  3  4  2  0
  4  5  1  0
  5  6  2  0
  6  7  1  0
  6  8  1  0
  8  9  2  0
  9 10  1  0
 10 11  1  0
 11 12  1  0
 12 13  2  0
 12 14  1  0
 14 15  1  0
 15 16  1  0
 16 17  2  0
 16 18  1  0
 18 19  1  6
 19 20  1  0
 20 21  1  0
 21 22  2  0
 22 23  1  0
 23 24  2  0
 24 25  1  0
 25 26  2  0
 26 27  1  0
 18 28  1  0
 28 29  1  0
 29 30  2  0
 29 31  1  0
 31 32  2  0
 31 33  1  0
  9  3  1  0
 26 21  1  0
M  CHG  2  26   1  27  -1
M  END
$$$$
