VFSQXXYAIWPJKL-MRXNPFEDSA-N_8BXH_m9
     RDKit          3D

 38 42  0  0  0  0  0  0  0  0999 V2000
  -19.9310   18.1170   22.7470 C   0  0  0  0  0  0  0  0  0  0  0  0
  -18.7220   17.2470   23.0550 C   0  0  0  0  0  0  0  0  0  0  0  0
  -17.4990   17.9070   22.7300 O   0  0  0  0  0  0  0  0  0  0  0  0
  -17.3500   18.2500   21.4280 C   0  0  0  0  0  0  0  0  0  0  0  0
  -17.2440   19.5240   21.0450 N   0  0  0  0  0  0  0  0  0  0  0  0
  -17.0620   19.4260   19.7120 N   0  0  0  0  0  0  0  0  0  0  0  0
  -16.8570   20.6230   18.9350 C   0  0  0  0  0  0  0  0  0  0  0  0
  -17.0750   18.1440   19.2470 C   0  0  0  0  0  0  0  0  0  0  0  0
  -17.2420   17.3430   20.3500 C   0  0  0  0  0  0  0  0  0  0  0  0
  -17.3010   15.9970   20.4350 N   0  0  0  0  0  0  0  0  0  0  0  0
  -16.3520   15.0030   20.2330 C   0  0  0  0  0  0  0  0  0  0  0  0
  -16.6910   13.7110   20.1120 N   0  0  0  0  0  0  0  0  0  0  0  0
  -15.6910   12.8270   19.8960 C   0  0  0  0  0  0  0  0  0  0  0  0
  -14.3630   13.1680   19.8120 C   0  0  0  0  0  0  0  0  0  0  0  0
  -13.1750   11.9520   19.5740 Cl  0  0  0  0  0  0  0  0  0  0  0  0
  -14.1090   14.5150   19.9570 C   0  0  0  0  0  0  0  0  0  0  0  0
  -12.7670   15.0750   19.9610 C   0  0  0  0  0  0  0  0  0  0  0  0
  -11.6290   14.3450   20.2190 C   0  0  0  0  0  0  0  0  0  0  0  0
  -10.5560   15.1860   20.0780 N   0  0  0  0  0  0  0  0  0  0  0  0
  -10.9600   16.4440   19.6860 C   0  0  0  0  0  0  0  0  0  0  0  0
  -10.2210   17.5980   19.3720 C   0  0  0  0  0  0  0  0  0  0  0  0
   -8.8260   17.7350   19.4050 N   0  0  0  0  0  0  0  0  0  0  0  0
   -7.8940   17.2280   20.2890 C   0  0  0  0  0  0  0  0  0  0  0  0
   -8.1250   16.5290   21.2740 O   0  0  0  0  0  0  0  0  0  0  0  0
   -6.4320   17.5790   19.8700 C   0  0  1  0  0  0  0  0  0  0  0  0
   -5.9760   18.6590   20.8590 C   0  0  0  0  0  0  0  0  0  0  0  0
   -5.6110   16.3240   19.8720 N   0  0  0  0  0  0  0  0  0  0  0  0
   -4.2140   16.4820   20.3260 C   0  0  0  0  0  0  0  0  0  0  0  0
   -3.2790   17.1810   19.3170 C   0  0  0  0  0  0  0  0  0  0  0  0
   -3.2410   16.4430   18.0460 N   0  0  0  0  0  0  0  0  0  0  0  0
   -2.3400   17.0770   17.0880 C   0  0  0  0  0  0  0  0  0  0  0  0
   -4.6030   16.3160   17.5000 C   0  0  0  0  0  0  0  0  0  0  0  0
   -5.5910   15.6930   18.5220 C   0  0  0  0  0  0  0  0  0  0  0  0
  -10.9540   18.7280   18.9680 C   0  0  0  0  0  0  0  0  0  0  0  0
  -12.3400   18.7080   18.8750 C   0  0  0  0  0  0  0  0  0  0  0  0
  -13.0510   17.5500   19.1860 C   0  0  0  0  0  0  0  0  0  0  0  0
  -12.3540   16.3950   19.5980 C   0  0  0  0  0  0  0  0  0  0  0  0
  -15.0850   15.4350   20.1650 N   0  0  0  0  0  0  0  0  0  0  0  0
  1  2  1  0
  2  3  1  0
  3  4  1  0
  4  5  2  0
  5  6  1  0
  6  7  1  0
  6  8  1  0
  8  9  2  0
  9 10  1  0
 10 11  1  0
 11 12  2  0
 12 13  1  0
 13 14  2  0
 14 15  1  0
 14 16  1  0
 16 17  1  0
 17 18  2  0
 18 19  1  0
 19 20  1  0
 20 21  2  0
 21 22  1  0
 22 23  1  0
 23 24  2  0
 23 25  1  0
 25 26  1  1
 25 27  1  0
 27 28  1  0
 28 29  1  0
 29 30  1  0
 30 31  1  0
 30 32  1  0
 32 33  1  0
 21 34  1  0
 34 35  2  0
 35 36  1  0
 36 37  2  0
 16 38  2  0
  9  4  1  0
 38 11  1  0
 37 17  1  0
 37 20  1  0
 33 27  1  0
M  END
$$$$
