VFSQXXYAIWPJKL-MRXNPFEDSA-N_6N7A_m4
     RDKit          3D

 38 42  0  0  0  0  0  0  0  0999 V2000
   11.7150  -24.2390   28.7620 C   0  0  0  0  0  0  0  0  0  0  0  0
   11.9830  -25.6300   29.3160 C   0  0  0  0  0  0  0  0  0  0  0  0
   11.2500  -26.6310   28.6110 O   0  0  0  0  0  0  0  0  0  0  0  0
   11.7990  -27.0370   27.4410 C   0  0  0  0  0  0  0  0  0  0  0  0
   12.9100  -27.7750   27.4040 N   0  0  0  0  0  0  0  0  0  0  0  0
   13.0820  -28.0010   26.0850 N   0  0  0  0  0  0  0  0  0  0  0  0
   14.1820  -28.8220   25.6430 C   0  0  0  0  0  0  0  0  0  0  0  0
   12.1360  -27.4130   25.2980 C   0  0  0  0  0  0  0  0  0  0  0  0
   11.2660  -26.7870   26.1560 C   0  0  0  0  0  0  0  0  0  0  0  0
   10.1470  -26.0810   25.8840 N   0  0  0  0  0  0  0  0  0  0  0  0
    9.0110  -26.3750   25.1410 C   0  0  0  0  0  0  0  0  0  0  0  0
    8.5070  -27.6170   25.0750 N   0  0  0  0  0  0  0  0  0  0  0  0
    7.3850  -27.7910   24.3420 C   0  0  0  0  0  0  0  0  0  0  0  0
    6.7490  -26.7870   23.6540 C   0  0  0  0  0  0  0  0  0  0  0  0
    5.3500  -27.1350   22.7200 Cl  0  0  0  0  0  0  0  0  0  0  0  0
    7.3420  -25.5480   23.7710 C   0  0  0  0  0  0  0  0  0  0  0  0
    6.8610  -24.3670   23.0740 C   0  0  0  0  0  0  0  0  0  0  0  0
    5.5700  -23.8960   23.1580 C   0  0  0  0  0  0  0  0  0  0  0  0
    5.5010  -22.7430   22.4200 N   0  0  0  0  0  0  0  0  0  0  0  0
    6.7310  -22.4190   21.8890 C   0  0  0  0  0  0  0  0  0  0  0  0
    7.1480  -21.3160   21.1230 C   0  0  0  0  0  0  0  0  0  0  0  0
    6.3510  -20.2460   20.6910 N   0  0  0  0  0  0  0  0  0  0  0  0
    5.7530  -19.2260   21.4040 C   0  0  0  0  0  0  0  0  0  0  0  0
    5.8010  -19.0590   22.6210 O   0  0  0  0  0  0  0  0  0  0  0  0
    5.0250  -18.2050   20.4740 C   0  0  1  0  0  0  0  0  0  0  0  0
    6.1340  -17.5680   19.6270 C   0  0  0  0  0  0  0  0  0  0  0  0
    3.9630  -18.9260   19.6980 N   0  0  0  0  0  0  0  0  0  0  0  0
    3.4400  -18.2040   18.5200 C   0  0  0  0  0  0  0  0  0  0  0  0
    2.5050  -17.0210   18.8460 C   0  0  0  0  0  0  0  0  0  0  0  0
    1.3440  -17.4750   19.6260 N   0  0  0  0  0  0  0  0  0  0  0  0
    0.4350  -16.3720   19.9200 C   0  0  0  0  0  0  0  0  0  0  0  0
    1.8000  -18.1420   20.8580 C   0  0  0  0  0  0  0  0  0  0  0  0
    2.8100  -19.2840   20.5720 C   0  0  0  0  0  0  0  0  0  0  0  0
    8.5070  -21.2720   20.7660 C   0  0  0  0  0  0  0  0  0  0  0  0
    9.4000  -22.2640   21.1530 C   0  0  0  0  0  0  0  0  0  0  0  0
    8.9650  -23.3440   21.9190 C   0  0  0  0  0  0  0  0  0  0  0  0
    7.6090  -23.4270   22.2960 C   0  0  0  0  0  0  0  0  0  0  0  0
    8.4620  -25.3310   24.5070 N   0  0  0  0  0  0  0  0  0  0  0  0
  1  2  1  0
  2  3  1  0
  3  4  1  0
  4  5  2  0
  5  6  1  0
  6  7  1  0
  6  8  1  0
  8  9  2  0
  9 10  1  0
 10 11  1  0
 11 12  2  0
 12 13  1  0
 13 14  2  0
 14 15  1  0
 14 16  1  0
 16 17  1  0
 17 18  2  0
 18 19  1  0
 19 20  1  0
 20 21  2  0
 21 22  1  0
 22 23  1  0
 23 24  2  0
 23 25  1  0
 25 26  1  6
 25 27  1  0
 27 28  1  0
 28 29  1  0
 29 30  1  0
 30 31  1  0
 30 32  1  0
 32 33  1  0
 21 34  1  0
 34 35  2  0
 35 36  1  0
 36 37  2  0
 16 38  2  0
  9  4  1  0
 38 11  1  0
 37 17  1  0
 37 20  1  0
 33 27  1  0
M  END
$$$$
