VHCWDBADFMDZND-QFYYESIMSA-N_2JKH_m3
     RDKit          3D

 27 30  0  0  0  0  0  0  0  0999 V2000
  -10.7110   10.8850   23.0110 C   0  0  0  0  0  0  0  0  0  0  0  0
  -10.4630   10.6390   21.5310 C   0  0  1  0  0  0  0  0  0  0  0  0
  -11.1480   11.6610   20.6280 C   0  0  0  0  0  0  0  0  0  0  0  0
  -10.3650   11.6150   19.3160 C   0  0  0  0  0  0  0  0  0  0  0  0
   -9.0760   10.8480   19.6110 C   0  0  0  0  0  0  0  0  0  0  0  0
   -8.9860   10.7710   21.1350 C   0  0  2  0  0  0  0  0  0  0  0  0
   -8.2820    9.6140   21.5760 O   0  0  0  0  0  0  0  0  0  0  0  0
   -7.1840    9.2040   20.8640 C   0  0  0  0  0  0  0  0  0  0  0  0
   -7.1510    8.2030   19.8970 C   0  0  0  0  0  0  0  0  0  0  0  0
   -5.9490    7.8960   19.2550 C   0  0  0  0  0  0  0  0  0  0  0  0
   -4.7780    8.5880   19.5770 C   0  0  0  0  0  0  0  0  0  0  0  0
   -4.7810    9.6010   20.5460 C   0  0  0  0  0  0  0  0  0  0  0  0
   -3.5260   10.2980   20.8490 C   0  0  0  0  0  0  0  0  0  0  0  0
   -2.7470   10.9340   19.9890 N   0  0  0  0  0  0  0  0  0  0  0  0
   -1.6940   11.4260   20.7170 C   0  0  0  0  0  0  0  0  0  0  0  0
   -0.5870   12.1760   20.2910 C   0  0  0  0  0  0  0  0  0  0  0  0
    0.3720   12.5640   21.2430 C   0  0  0  0  0  0  0  0  0  0  0  0
    1.5580   13.3590   20.8150 C   0  0  0  0  0  0  0  0  0  0  0  0
    2.7670   12.8880   20.8210 N   0  0  0  0  0  0  0  0  0  0  0  0
    1.4250   14.6410   20.3950 N   0  0  0  0  0  0  0  0  0  0  0  0
    0.1980   12.2190   22.5900 C   0  0  0  0  0  0  0  0  0  0  0  0
    1.0940   12.6000   23.5150 F   0  0  0  0  0  0  0  0  0  0  0  0
   -0.8990   11.4720   23.0320 C   0  0  0  0  0  0  0  0  0  0  0  0
   -1.8220   11.0930   22.0590 C   0  0  0  0  0  0  0  0  0  0  0  0
   -2.9870   10.3780   22.1140 N   0  0  0  0  0  0  0  0  0  0  0  0
   -5.9990    9.8930   21.1790 C   0  0  0  0  0  0  0  0  0  0  0  0
   -6.0670   10.8790   22.1420 O   0  0  0  0  0  0  0  0  0  0  0  0
  2  1  1  1
  2  3  1  0
  3  4  1  0
  4  5  1  0
  5  6  1  0
  6  7  1  6
  7  8  1  0
  8  9  2  0
  9 10  1  0
 10 11  2  0
 11 12  1  0
 12 13  1  0
 13 14  2  0
 14 15  1  0
 15 16  2  0
 16 17  1  0
 17 18  1  0
 18 19  2  3
 18 20  1  0
 17 21  2  0
 21 22  1  0
 21 23  1  0
 23 24  2  0
 24 25  1  0
 12 26  2  0
 26 27  1  0
  6  2  1  0
 26  8  1  0
 25 13  1  0
 24 15  1  0
M  END
$$$$
