VHCWDBADFMDZND-QFYYESIMSA-N_2JKH_m7
     RDKit          3D

 27 30  0  0  0  0  0  0  0  0999 V2000
   -5.6730    9.9650   14.3470 C   0  0  0  0  0  0  0  0  0  0  0  0
   -7.1930    9.9040   14.3830 C   0  0  1  0  0  0  0  0  0  0  0  0
   -7.7960    9.1970   13.1730 C   0  0  0  0  0  0  0  0  0  0  0  0
   -9.1810    8.7410   13.6330 C   0  0  0  0  0  0  0  0  0  0  0  0
   -9.1960    8.8840   15.1540 C   0  0  0  0  0  0  0  0  0  0  0  0
   -7.7370    9.0860   15.5620 C   0  0  2  0  0  0  0  0  0  0  0  0
   -7.6120    9.8520   16.7560 O   0  0  0  0  0  0  0  0  0  0  0  0
   -7.0060    9.2780   17.8430 C   0  0  0  0  0  0  0  0  0  0  0  0
   -7.4140    8.1220   18.5040 C   0  0  0  0  0  0  0  0  0  0  0  0
   -6.6900    7.6580   19.6050 C   0  0  0  0  0  0  0  0  0  0  0  0
   -5.5570    8.3460   20.0470 C   0  0  0  0  0  0  0  0  0  0  0  0
   -5.1230    9.5130   19.4020 C   0  0  0  0  0  0  0  0  0  0  0  0
   -3.9280   10.2000   19.9060 C   0  0  0  0  0  0  0  0  0  0  0  0
   -3.1730   11.0610   19.2430 N   0  0  0  0  0  0  0  0  0  0  0  0
   -2.1770   11.4410   20.1060 C   0  0  0  0  0  0  0  0  0  0  0  0
   -1.1140   12.3350   19.9060 C   0  0  0  0  0  0  0  0  0  0  0  0
   -0.2120   12.5580   20.9590 C   0  0  0  0  0  0  0  0  0  0  0  0
    0.9270   13.5020   20.7710 C   0  0  0  0  0  0  0  0  0  0  0  0
    0.7890   14.6840   20.2560 N   0  0  0  0  0  0  0  0  0  0  0  0
    2.1870   13.1590   21.1350 N   0  0  0  0  0  0  0  0  0  0  0  0
   -0.3980   11.9090   22.1880 C   0  0  0  0  0  0  0  0  0  0  0  0
    0.4430   12.1280   23.2120 F   0  0  0  0  0  0  0  0  0  0  0  0
   -1.4520   11.0160   22.4050 C   0  0  0  0  0  0  0  0  0  0  0  0
   -2.3180   10.8080   21.3330 C   0  0  0  0  0  0  0  0  0  0  0  0
   -3.4320   10.0270   21.1780 N   0  0  0  0  0  0  0  0  0  0  0  0
   -5.8650    9.9620   18.2990 C   0  0  0  0  0  0  0  0  0  0  0  0
   -5.4880   11.1040   17.6210 O   0  0  0  0  0  0  0  0  0  0  0  0
  2  1  1  6
  2  3  1  0
  3  4  1  0
  4  5  1  0
  5  6  1  0
  6  7  1  1
  7  8  1  0
  8  9  2  0
  9 10  1  0
 10 11  2  0
 11 12  1  0
 12 13  1  0
 13 14  2  0
 14 15  1  0
 15 16  2  0
 16 17  1  0
 17 18  1  0
 18 19  2  3
 18 20  1  0
 17 21  2  0
 21 22  1  0
 21 23  1  0
 23 24  2  0
 24 25  1  0
 12 26  2  0
 26 27  1  0
  6  2  1  0
 26  8  1  0
 25 13  1  0
 24 15  1  0
M  END
$$$$
