VIANWBJPMVJZPN-UHFFFAOYSA-N_3POZ_m2
     RDKit          3D

 33 36  0  0  0  0  0  0  0  0999 V2000
   14.4300   28.5930    7.2750 C   0  0  0  0  0  0  0  0  0  0  0  0
   15.3840   29.5670    6.7530 N   0  0  0  0  0  0  0  0  0  0  0  0
   16.7710   29.1140    6.9550 C   0  0  0  0  0  0  0  0  0  0  0  0
   17.8050   30.1640    6.4840 C   0  0  0  0  0  0  0  0  0  0  0  0
   17.6400   31.5100    7.0790 N   0  0  0  0  0  0  0  0  0  0  0  0
   18.0750   31.5250    8.4900 C   0  0  0  0  0  0  0  0  0  0  0  0
   17.6750   32.7880    9.2800 C   0  0  0  0  0  0  0  0  0  0  0  0
   18.3820   32.8850   10.5660 C   0  0  0  0  0  0  0  0  0  0  0  0
   18.9900   32.9450   11.6010 C   0  0  0  0  0  0  0  0  0  0  0  0
   19.7160   33.0750   12.8450 C   0  0  0  0  0  0  0  0  0  0  0  0
   20.2020   32.0730   13.3490 O   0  0  0  0  0  0  0  0  0  0  0  0
   19.7810   34.3570   13.3140 N   0  0  0  0  0  0  0  0  0  0  0  0
   20.3990   34.8200   14.4720 C   0  0  0  0  0  0  0  0  0  0  0  0
   19.8640   34.6990   15.7450 C   0  0  0  0  0  0  0  0  0  0  0  0
   20.5850   35.1900   16.8640 C   0  0  0  0  0  0  0  0  0  0  0  0
   20.1620   35.1180   18.2060 C   0  0  0  0  0  0  0  0  0  0  0  0
   18.9320   34.4930   18.5150 N   0  0  0  0  0  0  0  0  0  0  0  0
   17.6090   34.9520   18.3850 C   0  0  0  0  0  0  0  0  0  0  0  0
   17.1200   36.0800   19.0600 C   0  0  0  0  0  0  0  0  0  0  0  0
   15.8020   36.5130   18.8870 C   0  0  0  0  0  0  0  0  0  0  0  0
   14.9580   35.8220   18.0270 C   0  0  0  0  0  0  0  0  0  0  0  0
   13.6970   36.2520   17.8750 F   0  0  0  0  0  0  0  0  0  0  0  0
   15.4220   34.7100   17.3340 C   0  0  0  0  0  0  0  0  0  0  0  0
   14.3880   33.8510   16.2580 Cl  0  0  0  0  0  0  0  0  0  0  0  0
   16.7410   34.2800   17.5080 C   0  0  0  0  0  0  0  0  0  0  0  0
   20.8930   35.6420   19.2080 N   0  0  0  0  0  0  0  0  0  0  0  0
   22.0560   36.2110   18.8840 C   0  0  0  0  0  0  0  0  0  0  0  0
   22.5620   36.3170   17.6530 N   0  0  0  0  0  0  0  0  0  0  0  0
   21.8190   35.8100   16.6590 C   0  0  0  0  0  0  0  0  0  0  0  0
   22.2510   35.8820   15.3450 C   0  0  0  0  0  0  0  0  0  0  0  0
   21.5870   35.4090   14.2570 N   0  0  0  0  0  0  0  0  0  0  0  0
   16.2320   31.9240    6.8950 C   0  0  0  0  0  0  0  0  0  0  0  0
   15.1800   30.8910    7.3660 C   0  0  0  0  0  0  0  0  0  0  0  0
  1  2  1  0
  2  3  1  0
  3  4  1  0
  4  5  1  0
  5  6  1  0
  6  7  1  0
  7  8  1  0
  8  9  3  0
  9 10  1  0
 10 11  2  0
 10 12  1  0
 12 13  1  0
 13 14  2  0
 14 15  1  0
 15 16  2  0
 16 17  1  0
 17 18  1  0
 18 19  2  0
 19 20  1  0
 20 21  2  0
 21 22  1  0
 21 23  1  0
 23 24  1  0
 23 25  2  0
 16 26  1  0
 26 27  2  0
 27 28  1  0
 28 29  2  0
 29 30  1  0
 30 31  2  0
  5 32  1  0
 32 33  1  0
 33  2  1  0
 31 13  1  0
 29 15  1  0
 25 18  1  0
M  END
$$$$
