VKZZRIHGEAOOMI-BRWVUGGUSA-N_6N7A_m6
     RDKit          3D

 29 32  0  0  0  0  0  0  0  0999 V2000
    2.1860  -27.8670   21.1730 C   0  0  0  0  0  0  0  0  0  0  0  0
    2.8190  -26.8820   21.9810 O   0  0  0  0  0  0  0  0  0  0  0  0
    4.2470  -26.9960   21.9940 C   0  0  2  0  0  0  0  0  0  0  0  0
    4.6040  -28.0010   23.0960 C   0  0  0  0  0  0  0  0  0  0  0  0
    6.1130  -28.1080   23.2840 C   0  0  0  0  0  0  0  0  0  0  0  0
    6.7370  -26.7420   23.5540 C   0  0  0  0  0  0  0  0  0  0  0  0
    6.3840  -25.8170   22.4520 N   0  0  0  0  0  0  0  0  0  0  0  0
    7.3580  -24.4410   22.2510 S   0  0  0  0  0  0  0  0  0  0  0  0
    7.1450  -23.5970   23.4070 O   0  0  0  0  0  0  0  0  0  0  0  0
    8.6820  -24.8980   21.8870 O   0  0  0  0  0  0  0  0  0  0  0  0
    6.6130  -23.6480   20.8210 C   0  0  0  0  0  0  0  0  0  0  0  0
    5.6980  -22.4660   21.1840 C   0  0  2  0  0  0  0  0  0  0  0  0
    4.3780  -22.4760   20.3940 C   0  0  0  0  0  0  0  0  0  0  0  0
    3.5090  -21.2540   20.7030 C   0  0  0  0  0  0  0  0  0  0  0  0
    4.2840  -19.9490   20.4890 C   0  0  1  0  0  0  0  0  0  0  0  0
    3.4520  -18.7540   20.7160 N   0  0  0  0  0  0  0  0  0  0  0  0
    3.1620  -18.3920   22.0930 C   0  0  0  0  0  0  0  0  0  0  0  0
    3.0260  -17.9360   19.6760 C   0  0  0  0  0  0  0  0  0  0  0  0
    1.7950  -18.1700   19.1360 N   0  0  0  0  0  0  0  0  0  0  0  0
    1.3450  -17.4260   18.1100 C   0  0  0  0  0  0  0  0  0  0  0  0
    1.9610  -16.4080   17.5000 N   0  0  0  0  0  0  0  0  0  0  0  0
    3.1600  -16.1770   18.0500 C   0  0  0  0  0  0  0  0  0  0  0  0
    4.0020  -15.1850   17.6290 N   0  0  0  0  0  0  0  0  0  0  0  0
    5.1360  -15.1840   18.3930 C   0  0  0  0  0  0  0  0  0  0  0  0
    5.0120  -16.2020   19.3160 C   0  0  0  0  0  0  0  0  0  0  0  0
    3.7580  -16.8600   19.1040 C   0  0  0  0  0  0  0  0  0  0  0  0
    5.6100  -19.9220   21.2600 C   0  0  0  0  0  0  0  0  0  0  0  0
    6.4580  -21.1500   20.9350 C   0  0  0  0  0  0  0  0  0  0  0  0
    4.9190  -25.6420   22.2810 C   0  0  0  0  0  0  0  0  0  0  0  0
  1  2  1  0
  3  2  1  1
  3  4  1  0
  4  5  1  0
  5  6  1  0
  6  7  1  0
  7  8  1  0
  8  9  2  0
  8 10  2  0
  8 11  1  0
 12 11  1  1
 12 13  1  0
 13 14  1  0
 14 15  1  0
 15 16  1  6
 16 17  1  0
 16 18  1  0
 18 19  2  0
 19 20  1  0
 20 21  2  0
 21 22  1  0
 22 23  1  0
 23 24  1  0
 24 25  2  0
 25 26  1  0
 15 27  1  0
 27 28  1  0
  7 29  1  0
 29  3  1  0
 28 12  1  0
 26 18  1  0
 26 22  2  0
M  END
$$$$
