VNJJEMOMRQCJFH-UHFFFAOYSA-N_5U3Q_m3
     RDKit          3D

 31 33  0  0  0  0  0  0  0  0999 V2000
   45.3520  -36.9830  109.9840 C   0  0  0  0  0  0  0  0  0  0  0  0
   45.8780  -37.9810  108.9870 C   0  0  0  0  0  0  0  0  0  0  0  0
   45.0300  -39.0010  108.5150 C   0  0  0  0  0  0  0  0  0  0  0  0
   45.4950  -39.9400  107.5970 C   0  0  0  0  0  0  0  0  0  0  0  0
   44.7800  -40.9750  107.0640 O   0  0  0  0  0  0  0  0  0  0  0  0
   43.3710  -40.7880  106.9300 C   0  0  0  0  0  0  0  0  0  0  0  0
   43.1180  -40.2930  105.5450 C   0  0  0  0  0  0  0  0  0  0  0  0
   43.5290  -40.8530  104.4250 N   0  0  0  0  0  0  0  0  0  0  0  0
   43.1030  -40.0740  103.3420 C   0  0  0  0  0  0  0  0  0  0  0  0
   43.4220  -40.4910  101.9710 C   0  0  0  0  0  0  0  0  0  0  0  0
   42.9640  -39.7610  100.8640 C   0  0  0  0  0  0  0  0  0  0  0  0
   43.2730  -40.1650   99.5610 C   0  0  0  0  0  0  0  0  0  0  0  0
   44.0400  -41.3170   99.3340 C   0  0  0  0  0  0  0  0  0  0  0  0
   44.3930  -41.7420   97.9290 C   0  0  0  0  0  0  0  0  0  0  0  0
   43.3100  -42.1290   97.1990 F   0  0  0  0  0  0  0  0  0  0  0  0
   44.9840  -40.7420   97.2190 F   0  0  0  0  0  0  0  0  0  0  0  0
   45.2600  -42.7930   97.8900 F   0  0  0  0  0  0  0  0  0  0  0  0
   44.5060  -42.0450  100.4380 C   0  0  0  0  0  0  0  0  0  0  0  0
   44.1970  -41.6380  101.7410 C   0  0  0  0  0  0  0  0  0  0  0  0
   42.4180  -38.9530  103.6030 N   0  0  0  0  0  0  0  0  0  0  0  0
   42.2560  -38.8400  105.2550 S   0  0  0  0  0  0  0  0  0  0  0  0
   46.8130  -39.8540  107.1510 C   0  0  0  0  0  0  0  0  0  0  0  0
   47.6640  -38.8440  107.6120 C   0  0  0  0  0  0  0  0  0  0  0  0
   47.2050  -37.8970  108.5240 C   0  0  0  0  0  0  0  0  0  0  0  0
   47.9370  -36.8720  109.0500 O   0  0  0  0  0  0  0  0  0  0  0  0
   48.6000  -35.8890  108.2480 C   0  0  0  0  0  0  0  0  0  0  0  0
   47.6810  -35.7420  107.0190 C   0  0  0  0  0  0  0  0  0  0  0  0
   49.9610  -36.4060  107.7550 C   0  0  0  0  0  0  0  0  0  0  0  0
   48.6760  -34.4800  108.8640 C   0  0  0  0  0  0  0  0  0  0  0  0
   48.3870  -34.1550  110.0060 O   0  0  0  0  0  0  0  0  0  0  0  0
   49.0790  -33.5280  107.9930 O   0  0  0  0  0  0  0  0  0  0  0  0
  1  2  1  0
  2  3  2  0
  3  4  1  0
  4  5  1  0
  5  6  1  0
  6  7  1  0
  7  8  2  0
  8  9  1  0
  9 10  1  0
 10 11  2  0
 11 12  1  0
 12 13  2  0
 13 14  1  0
 14 15  1  0
 14 16  1  0
 14 17  1  0
 13 18  1  0
 18 19  2  0
  9 20  2  0
 20 21  1  0
  4 22  2  0
 22 23  1  0
 23 24  2  0
 24 25  1  0
 25 26  1  0
 26 27  1  0
 26 28  1  0
 26 29  1  0
 29 30  2  0
 29 31  1  0
 24  2  1  0
 21  7  1  0
 19 10  1  0
M  END
$$$$
