VOGZXZRPMAOGPW-UHFFFAOYSA-N_4UDW_m4
     RDKit          3D

 42 44  0  0  0  0  0  0  0  0999 V2000
  135.8960  -21.5900  169.1720 C   0  0  0  0  0  0  0  0  0  0  0  0
  136.0350  -20.0730  169.0120 C   0  0  0  0  0  0  0  0  0  0  0  0
  136.3510  -19.4080  170.3550 C   0  0  0  0  0  0  0  0  0  0  0  0
  134.8050  -19.4590  168.3670 C   0  0  0  0  0  0  0  0  0  0  0  0
  134.7270  -18.0960  168.0860 C   0  0  0  0  0  0  0  0  0  0  0  0
  133.5890  -17.5080  167.4920 C   0  0  0  0  0  0  0  0  0  0  0  0
  133.6490  -15.9960  167.2500 C   0  0  0  0  0  0  0  0  0  0  0  0
  133.6830  -15.2350  168.5800 C   0  0  0  0  0  0  0  0  0  0  0  0
  134.8370  -15.5710  166.3720 C   0  0  0  0  0  0  0  0  0  0  0  0
  132.4700  -18.3470  167.1840 C   0  0  0  0  0  0  0  0  0  0  0  0
  130.9610  -17.5670  166.5400 S   0  0  0  0  0  0  0  0  0  0  0  0
  130.3710  -16.7790  167.5990 O   0  0  0  0  0  0  0  0  0  0  0  0
  130.1370  -18.5000  165.8050 O   0  0  0  0  0  0  0  0  0  0  0  0
  131.6030  -16.4890  165.4130 N   0  0  0  0  0  0  0  0  0  0  0  0
  131.4090  -16.8340  163.9790 C   0  0  2  0  0  0  0  0  0  0  0  0
  132.7440  -17.2530  163.3470 C   0  0  0  0  0  0  0  0  0  0  0  0
  133.1380  -18.6950  163.5900 C   0  0  0  0  0  0  0  0  0  0  0  0
  132.3310  -19.7620  163.1630 C   0  0  0  0  0  0  0  0  0  0  0  0
  132.7160  -21.0860  163.3890 C   0  0  0  0  0  0  0  0  0  0  0  0
  133.9270  -21.3650  164.0200 C   0  0  0  0  0  0  0  0  0  0  0  0
  134.7540  -20.3150  164.4230 C   0  0  0  0  0  0  0  0  0  0  0  0
  136.0440  -20.6050  165.0990 C   0  0  0  0  0  0  0  0  0  0  0  0
  136.2990  -21.7580  165.6310 N   0  0  0  0  0  0  0  0  0  0  0  0
  137.0020  -19.6520  165.1830 N   0  0  0  0  0  0  0  0  0  0  0  0
  134.3630  -18.9870  164.2110 C   0  0  0  0  0  0  0  0  0  0  0  0
  130.9090  -15.5580  163.2780 C   0  0  0  0  0  0  0  0  0  0  0  0
  131.7250  -14.8120  162.7250 O   0  0  0  0  0  0  0  0  0  0  0  0
  129.5510  -15.2880  163.2770 N   0  0  0  0  0  0  0  0  0  0  0  0
  128.5250  -16.1590  163.8650 C   0  0  0  0  0  0  0  0  0  0  0  0
  127.1020  -15.8020  163.4190 C   0  0  0  0  0  0  0  0  0  0  0  0
  126.7920  -14.3900  163.6550 N   0  0  0  0  0  0  0  0  0  0  0  0
  125.5030  -14.0350  164.0270 C   0  0  0  0  0  0  0  0  0  0  0  0
  124.5960  -14.8680  164.1140 O   0  0  0  0  0  0  0  0  0  0  0  0
  125.2480  -12.5490  164.3380 C   0  0  0  0  0  0  0  0  0  0  0  0
  125.3060  -12.3000  165.7880 N   0  0  0  0  0  0  0  0  0  0  0  0
  127.8970  -13.4350  163.4930 C   0  0  0  0  0  0  0  0  0  0  0  0
  129.0830  -14.0170  162.7130 C   0  0  0  0  0  0  0  0  0  0  0  0
  132.5420  -19.7540  167.4250 C   0  0  0  0  0  0  0  0  0  0  0  0
  131.4370  -20.7590  167.1050 C   0  0  0  0  0  0  0  0  0  0  0  0
  130.4590  -20.8680  168.2780 C   0  0  0  0  0  0  0  0  0  0  0  0
  131.9240  -22.1670  166.7130 C   0  0  0  0  0  0  0  0  0  0  0  0
  133.7120  -20.2630  168.0350 C   0  0  0  0  0  0  0  0  0  0  0  0
  1  2  1  0
  2  3  1  0
  2  4  1  0
  4  5  2  0
  5  6  1  0
  6  7  1  0
  7  8  1  0
  7  9  1  0
  6 10  2  0
 10 11  1  0
 11 12  2  0
 11 13  2  0
 11 14  1  0
 14 15  1  0
 15 16  1  6
 16 17  1  0
 17 18  2  0
 18 19  1  0
 19 20  2  0
 20 21  1  0
 21 22  1  0
 22 23  2  3
 22 24  1  0
 21 25  2  0
 15 26  1  0
 26 27  2  0
 26 28  1  0
 28 29  1  0
 29 30  1  0
 30 31  1  0
 31 32  1  0
 32 33  2  0
 32 34  1  0
 34 35  1  0
 31 36  1  0
 36 37  1  0
 10 38  1  0
 38 39  1  0
 39 40  1  0
 39 41  1  0
 38 42  2  0
 42  4  1  0
 25 17  1  0
 37 28  1  0
M  END
$$$$
