VSJKLRGRUBVDOK-UHFFFAOYSA-N_6LXA_m4
     RDKit          3D

 34 37  0  0  0  0  0  0  0  0999 V2000
   11.4340    7.5480  -13.6120 C   0  0  0  0  0  0  0  0  0  0  0  0
   10.2490    7.7860  -12.8640 O   0  0  0  0  0  0  0  0  0  0  0  0
   10.2880    7.5130  -11.5200 C   0  0  0  0  0  0  0  0  0  0  0  0
   10.2870    6.2280  -10.9710 C   0  0  0  0  0  0  0  0  0  0  0  0
   10.3210    6.0510   -9.5870 C   0  0  0  0  0  0  0  0  0  0  0  0
   10.3510    7.1560   -8.7400 C   0  0  0  0  0  0  0  0  0  0  0  0
   10.3510    8.4550   -9.2680 C   0  0  0  0  0  0  0  0  0  0  0  0
   10.3380    8.6330  -10.6680 C   0  0  0  0  0  0  0  0  0  0  0  0
   10.3100   10.0350  -11.2350 C   0  0  0  0  0  0  0  0  0  0  0  0
   10.8920   11.0560  -10.2620 C   0  0  0  0  0  0  0  0  0  0  0  0
   10.1960   10.9470   -8.9620 N   0  0  0  0  0  0  0  0  0  0  0  0
   10.2270   12.2960   -7.9380 S   0  0  0  0  0  0  0  0  0  0  0  0
   11.6090   12.6520   -7.6910 O   0  0  0  0  0  0  0  0  0  0  0  0
    9.2820   13.2680   -8.4450 O   0  0  0  0  0  0  0  0  0  0  0  0
    9.5730   11.6670   -6.4040 C   0  0  0  0  0  0  0  0  0  0  0  0
   10.2600   11.8900   -5.2070 C   0  0  0  0  0  0  0  0  0  0  0  0
    9.7510   11.3720   -4.0160 C   0  0  0  0  0  0  0  0  0  0  0  0
    8.5630   10.6380   -4.0240 C   0  0  0  0  0  0  0  0  0  0  0  0
    7.8760   10.4120   -5.2240 C   0  0  0  0  0  0  0  0  0  0  0  0
    6.6000    9.6380   -5.1830 C   0  0  0  0  0  0  0  0  0  0  0  0
    5.8070    9.7720   -6.1050 O   0  0  0  0  0  0  0  0  0  0  0  0
    6.4720    8.7950   -4.0970 N   0  0  0  0  0  0  0  0  0  0  0  0
    5.3760    7.9680   -3.7420 C   0  0  0  0  0  0  0  0  0  0  0  0
    4.7650    7.1090   -4.6630 C   0  0  0  0  0  0  0  0  0  0  0  0
    3.6840    6.3040   -4.2880 C   0  0  0  0  0  0  0  0  0  0  0  0
    3.2020    6.3510   -2.9840 C   0  0  0  0  0  0  0  0  0  0  0  0
    1.8730    5.3590   -2.5280 Cl  0  0  0  0  0  0  0  0  0  0  0  0
    3.7870    7.1980   -2.0490 C   0  0  0  0  0  0  0  0  0  0  0  0
    4.8730    8.0100   -2.4180 C   0  0  0  0  0  0  0  0  0  0  0  0
    5.4870    8.9180   -1.4070 C   0  0  0  0  0  0  0  0  0  0  0  0
    6.4640    9.6250   -1.5900 O   0  0  0  0  0  0  0  0  0  0  0  0
    4.8570    8.8950   -0.2200 O   0  0  0  0  0  0  0  0  0  0  0  0
    8.4010   10.9020   -6.4250 C   0  0  0  0  0  0  0  0  0  0  0  0
   10.3960    9.6330   -8.3150 C   0  0  0  0  0  0  0  0  0  0  0  0
  1  2  1  0
  2  3  1  0
  3  4  2  0
  4  5  1  0
  5  6  2  0
  6  7  1  0
  7  8  2  0
  8  9  1  0
  9 10  1  0
 10 11  1  0
 11 12  1  0
 12 13  2  0
 12 14  2  0
 12 15  1  0
 15 16  2  0
 16 17  1  0
 17 18  2  0
 18 19  1  0
 19 20  1  0
 20 21  2  0
 20 22  1  0
 22 23  1  0
 23 24  2  0
 24 25  1  0
 25 26  2  0
 26 27  1  0
 26 28  1  0
 28 29  2  0
 29 30  1  0
 30 31  2  0
 30 32  1  0
 19 33  2  0
 11 34  1  0
  8  3  1  0
 33 15  1  0
 34  7  1  0
 29 23  1  0
M  END
$$$$
