VWXMOLWJXUSYOA-UHFFFAOYSA-N_8BXH_m9
     RDKit          3D

 34 38  0  0  0  0  0  0  0  0999 V2000
  -18.4230   17.3670   22.2180 C   0  0  0  0  0  0  0  0  0  0  0  0
  -17.8920   18.2950   21.2200 N   0  0  0  0  0  0  0  0  0  0  0  0
  -16.6190   18.9050   21.6670 C   0  0  0  0  0  0  0  0  0  0  0  0
  -15.3890   17.9640   21.6750 C   0  0  0  0  0  0  0  0  0  0  0  0
  -15.2590   17.2740   20.3820 N   0  0  0  0  0  0  0  0  0  0  0  0
  -14.0590   16.5920   20.1850 C   0  0  0  0  0  0  0  0  0  0  0  0
  -13.7900   15.4000   20.8650 C   0  0  0  0  0  0  0  0  0  0  0  0
  -12.5710   14.7370   20.7030 C   0  0  0  0  0  0  0  0  0  0  0  0
  -11.5790   15.2330   19.8500 C   0  0  0  0  0  0  0  0  0  0  0  0
  -11.8630   16.3970   19.1360 C   0  0  0  0  0  0  0  0  0  0  0  0
  -13.0800   17.0970   19.3100 C   0  0  0  0  0  0  0  0  0  0  0  0
  -13.2760   18.4180   18.6010 C   0  0  0  0  0  0  0  0  0  0  0  0
  -12.2230   19.3360   18.8860 O   0  0  0  0  0  0  0  0  0  0  0  0
  -12.4500   20.0510   20.0970 C   0  0  0  0  0  0  0  0  0  0  0  0
  -11.1520   20.7000   20.4340 C   0  0  0  0  0  0  0  0  0  0  0  0
  -10.7030   20.9400   21.6780 C   0  0  0  0  0  0  0  0  0  0  0  0
   -9.3400   21.4710   22.0190 C   0  0  0  0  0  0  0  0  0  0  0  0
   -8.3850   21.1790   21.0040 O   0  0  0  0  0  0  0  0  0  0  0  0
   -7.0520   21.0880   21.5100 C   0  0  0  0  0  0  0  0  0  0  0  0
   -6.8610   19.7050   22.0770 C   0  0  0  0  0  0  0  0  0  0  0  0
   -6.3000   19.5500   23.3490 C   0  0  0  0  0  0  0  0  0  0  0  0
   -6.0890   18.2780   23.8700 C   0  0  0  0  0  0  0  0  0  0  0  0
   -6.4380   17.1520   23.1220 C   0  0  0  0  0  0  0  0  0  0  0  0
   -7.0100   17.2630   21.8380 C   0  0  0  0  0  0  0  0  0  0  0  0
   -7.2000   18.5610   21.3290 C   0  0  0  0  0  0  0  0  0  0  0  0
   -7.3780   16.0590   21.0560 C   0  0  0  0  0  0  0  0  0  0  0  0
   -6.4160   15.2370   20.4980 C   0  0  0  0  0  0  0  0  0  0  0  0
   -6.8720   14.2130   19.7110 C   0  0  0  0  0  0  0  0  0  0  0  0
   -8.1720   13.9950   19.4710 N   0  0  0  0  0  0  0  0  0  0  0  0
   -9.0560   14.8020   20.0820 C   0  0  0  0  0  0  0  0  0  0  0  0
   -8.7010   15.8220   20.8820 N   0  0  0  0  0  0  0  0  0  0  0  0
  -10.3780   14.5300   19.7500 N   0  0  0  0  0  0  0  0  0  0  0  0
  -16.4800   16.6340   19.8720 C   0  0  0  0  0  0  0  0  0  0  0  0
  -17.6690   17.6240   19.9170 C   0  0  0  0  0  0  0  0  0  0  0  0
  1  2  1  0
  2  3  1  0
  3  4  1  0
  4  5  1  0
  5  6  1  0
  6  7  2  0
  7  8  1  0
  8  9  2  0
  9 10  1  0
 10 11  2  0
 11 12  1  0
 12 13  1  0
 13 14  1  0
 14 15  1  0
 15 16  2  3
 16 17  1  0
 17 18  1  0
 18 19  1  0
 19 20  1  0
 20 21  2  0
 21 22  1  0
 22 23  2  0
 23 24  1  0
 24 25  2  0
 24 26  1  0
 26 27  2  0
 27 28  1  0
 28 29  2  0
 29 30  1  0
 30 31  2  0
 30 32  1  0
  5 33  1  0
 33 34  1  0
 34  2  1  0
 11  6  1  0
 25 20  1  0
 31 26  1  0
 32  9  1  0
M  END
$$$$
