VZZGNDREIXJEAB-UHFFFAOYSA-N_4JT6_m6
     RDKit          3D

 29 33  0  0  0  0  0  0  0  0999 V2000
   53.0680    0.8140  -50.4140 C   0  0  0  0  0  0  0  0  0  0  0  0
   51.7430    1.3860  -49.9250 C   0  0  0  0  0  0  0  0  0  0  0  0
   51.1570    0.6150  -48.7240 C   0  0  0  0  0  0  0  0  0  0  0  0
   52.2830   -0.0780  -47.9290 C   0  0  0  0  0  0  0  0  0  0  0  0
   52.6760    0.6820  -46.6660 C   0  0  0  0  0  0  0  0  0  0  0  0
   50.1190   -0.3240  -49.1330 N   0  0  0  0  0  0  0  0  0  0  0  0
   49.6970   -0.5700  -50.4100 C   0  0  0  0  0  0  0  0  0  0  0  0
   48.7460   -1.4770  -50.4420 N   0  0  0  0  0  0  0  0  0  0  0  0
   48.5320   -1.8360  -49.1250 C   0  0  0  0  0  0  0  0  0  0  0  0
   47.6800   -2.7340  -48.4770 C   0  0  0  0  0  0  0  0  0  0  0  0
   46.7000   -3.5780  -49.1650 C   0  0  0  0  0  0  0  0  0  0  0  0
   47.0320   -4.8470  -49.6430 C   0  0  0  0  0  0  0  0  0  0  0  0
   46.1600   -5.6790  -50.2780 N   0  0  0  0  0  0  0  0  0  0  0  0
   44.9090   -5.2130  -50.4270 C   0  0  0  0  0  0  0  0  0  0  0  0
   44.0210   -6.0230  -51.1030 N   0  0  0  0  0  0  0  0  0  0  0  0
   44.5690   -3.9450  -49.9680 C   0  0  0  0  0  0  0  0  0  0  0  0
   45.4340   -3.1180  -49.3280 N   0  0  0  0  0  0  0  0  0  0  0  0
   47.7710   -2.8390  -47.1100 N   0  0  0  0  0  0  0  0  0  0  0  0
   48.6460   -2.0900  -46.4110 C   0  0  0  0  0  0  0  0  0  0  0  0
   48.6840   -2.2540  -45.0400 N   0  0  0  0  0  0  0  0  0  0  0  0
   49.9720   -2.0990  -44.3540 C   0  0  0  0  0  0  0  0  0  0  0  0
   49.7860   -2.0920  -42.8180 C   0  0  1  0  0  0  0  0  0  0  0  0
   48.8710   -0.9630  -42.3510 C   0  0  0  0  0  0  0  0  0  0  0  0
   47.4800   -1.5820  -42.3910 C   0  0  0  0  0  0  0  0  0  0  0  0
   47.7260   -3.0070  -42.8750 C   0  0  1  0  0  0  0  0  0  0  0  0
   47.6780   -3.1220  -44.4160 C   0  0  0  0  0  0  0  0  0  0  0  0
   49.0710   -3.2860  -42.4270 O   0  0  0  0  0  0  0  0  0  0  0  0
   49.4910   -1.2070  -46.9660 N   0  0  0  0  0  0  0  0  0  0  0  0
   49.3890   -1.1270  -48.2980 C   0  0  0  0  0  0  0  0  0  0  0  0
  1  2  1  0
  2  3  1  0
  3  4  1  0
  4  5  1  0
  3  6  1  0
  6  7  1  0
  7  8  2  0
  8  9  1  0
  9 10  2  0
 10 11  1  0
 11 12  2  0
 12 13  1  0
 13 14  2  0
 14 15  1  0
 14 16  1  0
 16 17  2  0
 10 18  1  0
 18 19  2  0
 19 20  1  0
 20 21  1  0
 22 21  1  1
 22 23  1  0
 23 24  1  0
 25 24  1  1
 25 26  1  0
 25 27  1  0
 19 28  1  0
 28 29  2  0
 29  6  1  0
 29  9  1  0
 17 11  1  0
 26 20  1  0
 27 22  1  0
M  END
$$$$
