WCYNPWNUKWZKPY-NUHJPDEHSA-N_8BXH_m3
     RDKit          3D

 25 28  0  0  0  0  0  0  0  0999 V2000
  -13.5320   16.7280   22.0130 N   0  0  0  0  0  0  0  0  0  0  0  0
  -14.3700   16.4710   21.2530 C   0  0  0  0  0  0  0  0  0  0  0  0
  -15.4110   16.1880   20.2590 C   0  0  2  0  0  0  0  0  0  0  0  0
  -15.2360   14.8120   19.6160 C   0  0  0  0  0  0  0  0  0  0  0  0
  -15.9100   14.9680   18.2640 C   0  0  0  0  0  0  0  0  0  0  0  0
  -15.4420   16.3410   17.8010 C   0  0  0  0  0  0  0  0  0  0  0  0
  -15.3370   17.1870   19.0880 C   0  0  1  0  0  0  0  0  0  0  0  0
  -16.3690   18.2050   19.2080 N   0  0  0  0  0  0  0  0  0  0  0  0
  -17.6470   17.8180   19.4350 N   0  0  0  0  0  0  0  0  0  0  0  0
  -18.3540   18.9560   19.5160 C   0  0  0  0  0  0  0  0  0  0  0  0
  -19.6870   19.1010   19.7180 N   0  0  0  0  0  0  0  0  0  0  0  0
  -20.4590   19.1270   20.9000 C   0  0  0  0  0  0  0  0  0  0  0  0
  -20.0610   18.3330   21.9810 C   0  0  0  0  0  0  0  0  0  0  0  0
  -20.8140   18.3460   23.1470 C   0  0  0  0  0  0  0  0  0  0  0  0
  -21.9250   19.0860   23.3130 N   0  0  0  0  0  0  0  0  0  0  0  0
  -22.2930   19.8430   22.2600 C   0  0  0  0  0  0  0  0  0  0  0  0
  -23.3980   20.5920   22.3970 F   0  0  0  0  0  0  0  0  0  0  0  0
  -21.6080   19.8980   21.0580 C   0  0  0  0  0  0  0  0  0  0  0  0
  -17.5020   20.0680   19.3780 C   0  0  0  0  0  0  0  0  0  0  0  0
  -17.7030   21.4980   19.4040 C   0  0  0  0  0  0  0  0  0  0  0  0
  -18.8000   22.0250   19.5560 O   0  0  0  0  0  0  0  0  0  0  0  0
  -16.5250   22.2270   19.2420 N   0  0  0  0  0  0  0  0  0  0  0  0
  -15.2650   21.6660   19.0750 C   0  0  0  0  0  0  0  0  0  0  0  0
  -15.0670   20.3330   19.0440 C   0  0  0  0  0  0  0  0  0  0  0  0
  -16.2370   19.5590   19.1970 C   0  0  0  0  0  0  0  0  0  0  0  0
  1  2  3  0
  3  2  1  1
  3  4  1  0
  4  5  1  0
  5  6  1  0
  6  7  1  0
  7  8  1  1
  8  9  1  0
  9 10  2  0
 10 11  1  0
 11 12  1  0
 12 13  2  0
 13 14  1  0
 14 15  2  0
 15 16  1  0
 16 17  1  0
 16 18  2  0
 10 19  1  0
 19 20  1  0
 20 21  2  0
 20 22  1  0
 22 23  1  0
 23 24  2  0
 24 25  1  0
  7  3  1  0
 25  8  1  0
 18 12  1  0
 25 19  2  0
M  END
$$$$
