WFLQKKNSBAQKPU-UHFFFAOYSA-N_5U3Q_m7
     RDKit          3D

 32 35  0  0  0  0  0  0  0  0999 V2000
   42.2330  -38.0770  104.1990 O   0  0  0  0  0  0  0  0  0  0  0  0
   41.9470  -39.2060  103.8170 C   0  0  0  0  0  0  0  0  0  0  0  0
   40.7880  -39.5980  103.1790 N   0  0  0  0  0  0  0  0  0  0  0  0
   39.6460  -38.8150  102.8680 C   0  0  0  0  0  0  0  0  0  0  0  0
   38.4880  -38.8420  103.6550 C   0  0  0  0  0  0  0  0  0  0  0  0
   37.3760  -38.0580  103.3290 C   0  0  0  0  0  0  0  0  0  0  0  0
   37.4080  -37.2380  102.2070 C   0  0  0  0  0  0  0  0  0  0  0  0
   36.0380  -36.2790  101.8090 Cl  0  0  0  0  0  0  0  0  0  0  0  0
   38.5420  -37.1930  101.4030 C   0  0  0  0  0  0  0  0  0  0  0  0
   39.6640  -37.9780  101.7240 C   0  0  0  0  0  0  0  0  0  0  0  0
   40.8660  -37.9280  100.8480 C   0  0  0  0  0  0  0  0  0  0  0  0
   41.4620  -38.8980  100.4100 O   0  0  0  0  0  0  0  0  0  0  0  0
   41.2690  -36.6780  100.5630 O   0  0  0  0  0  0  0  0  0  0  0  0
   42.9520  -40.2870  104.0330 C   0  0  0  0  0  0  0  0  0  0  0  0
   43.2820  -41.2080  103.0280 C   0  0  0  0  0  0  0  0  0  0  0  0
   44.2190  -42.2150  103.2790 C   0  0  0  0  0  0  0  0  0  0  0  0
   44.8150  -42.3190  104.5360 C   0  0  0  0  0  0  0  0  0  0  0  0
   44.4580  -41.4210  105.5460 C   0  0  0  0  0  0  0  0  0  0  0  0
   45.2270  -41.5350  107.1500 S   0  0  0  0  0  0  0  0  0  0  0  0
   46.2200  -42.5840  107.0710 O   0  0  0  0  0  0  0  0  0  0  0  0
   44.1620  -41.5890  108.1300 O   0  0  0  0  0  0  0  0  0  0  0  0
   46.0210  -40.0500  107.3190 N   0  0  0  0  0  0  0  0  0  0  0  0
   45.5260  -39.1210  108.3600 C   0  0  0  0  0  0  0  0  0  0  0  0
   45.9450  -37.6960  107.9980 C   0  0  0  0  0  0  0  0  0  0  0  0
   47.4310  -37.5950  107.7640 C   0  0  0  0  0  0  0  0  0  0  0  0
   48.0790  -36.3580  107.8820 C   0  0  0  0  0  0  0  0  0  0  0  0
   49.4470  -36.2520  107.6370 C   0  0  0  0  0  0  0  0  0  0  0  0
   50.1780  -37.3770  107.2640 C   0  0  0  0  0  0  0  0  0  0  0  0
   49.5390  -38.6110  107.1300 C   0  0  0  0  0  0  0  0  0  0  0  0
   48.1620  -38.7310  107.3690 C   0  0  0  0  0  0  0  0  0  0  0  0
   47.4970  -40.0870  107.2290 C   0  0  0  0  0  0  0  0  0  0  0  0
   43.5440  -40.3930  105.2960 C   0  0  0  0  0  0  0  0  0  0  0  0
  1  2  2  0
  2  3  1  0
  3  4  1  0
  4  5  2  0
  5  6  1  0
  6  7  2  0
  7  8  1  0
  7  9  1  0
  9 10  2  0
 10 11  1  0
 11 12  2  0
 11 13  1  0
  2 14  1  0
 14 15  2  0
 15 16  1  0
 16 17  2  0
 17 18  1  0
 18 19  1  0
 19 20  2  0
 19 21  2  0
 19 22  1  0
 22 23  1  0
 23 24  1  0
 24 25  1  0
 25 26  2  0
 26 27  1  0
 27 28  2  0
 28 29  1  0
 29 30  2  0
 30 31  1  0
 18 32  2  0
 10  4  1  0
 32 14  1  0
 31 22  1  0
 30 25  1  0
M  END
$$$$
