WMXPSZOEUWJJHU-VMPITWQZSA-N_3POZ_m3
     RDKit          3D

 35 39  0  0  0  0  0  0  0  0999 V2000
   16.8900   31.0390    6.6440 C   0  0  0  0  0  0  0  0  0  0  0  0
   16.7270   31.8820    7.4840 C   0  0  0  0  0  0  0  0  0  0  0  0
   16.5330   32.8870    8.4860 C   0  0  0  0  0  0  0  0  0  0  0  0
   16.1070   34.1620    8.1200 C   0  0  0  0  0  0  0  0  0  0  0  0
   15.9140   35.1310    9.1020 C   0  0  0  0  0  0  0  0  0  0  0  0
   16.1510   34.8260   10.4460 C   0  0  0  0  0  0  0  0  0  0  0  0
   16.5950   33.5560   10.8340 C   0  0  0  0  0  0  0  0  0  0  0  0
   16.8230   33.1930   12.1750 N   0  0  0  0  0  0  0  0  0  0  0  0
   16.5450   33.8680   13.3850 C   0  0  0  0  0  0  0  0  0  0  0  0
   15.2700   33.9320   13.8130 N   0  0  0  0  0  0  0  0  0  0  0  0
   15.0450   34.5820   14.9560 C   0  0  0  0  0  0  0  0  0  0  0  0
   15.9670   35.1690   15.7230 N   0  0  0  0  0  0  0  0  0  0  0  0
   17.2320   35.0890   15.3040 C   0  0  0  0  0  0  0  0  0  0  0  0
   18.2180   35.6700   16.0820 C   0  0  0  0  0  0  0  0  0  0  0  0
   19.5680   35.6190   15.7210 C   0  0  0  0  0  0  0  0  0  0  0  0
   19.9830   35.0010   14.5320 C   0  0  0  0  0  0  0  0  0  0  0  0
   18.9840   34.4030   13.7550 C   0  0  0  0  0  0  0  0  0  0  0  0
   17.6060   34.4410   14.1210 C   0  0  0  0  0  0  0  0  0  0  0  0
   21.3730   35.0490   14.1480 N   0  0  0  0  0  0  0  0  0  0  0  0
   21.8790   34.4580   12.9860 C   0  0  0  0  0  0  0  0  0  0  0  0
   21.2740   34.2920   11.9300 O   0  0  0  0  0  0  0  0  0  0  0  0
   23.3000   34.0120   13.0550 C   0  0  0  0  0  0  0  0  0  0  0  0
   23.5900   32.7390   13.3630 C   0  0  0  0  0  0  0  0  0  0  0  0
   24.9840   32.1880   13.4260 C   0  0  0  0  0  0  0  0  0  0  0  0
   25.9410   33.0550   12.7290 N   0  0  0  0  0  0  0  0  0  0  0  0
   27.2710   33.0940   13.3800 C   0  0  0  0  0  0  0  0  0  0  0  0
   28.1150   31.8050   13.2290 C   0  0  0  0  0  0  0  0  0  0  0  0
   28.2670   31.3960   11.8230 N   0  0  0  0  0  0  0  0  0  0  0  0
   28.9910   30.1320   11.7180 C   0  0  0  0  0  0  0  0  0  0  0  0
   26.9540   31.3120   11.1640 C   0  0  0  0  0  0  0  0  0  0  0  0
   26.1350   32.6150   11.3290 C   0  0  0  0  0  0  0  0  0  0  0  0
   22.2330   35.8100   15.0680 C   0  0  0  0  0  0  0  0  0  0  0  0
   21.7440   35.7090   16.5010 C   0  0  0  0  0  0  0  0  0  0  0  0
   20.4210   36.2290   16.6110 O   0  0  0  0  0  0  0  0  0  0  0  0
   16.7690   32.5870    9.8320 C   0  0  0  0  0  0  0  0  0  0  0  0
  1  2  3  0
  2  3  1  0
  3  4  2  0
  4  5  1  0
  5  6  2  0
  6  7  1  0
  7  8  1  0
  8  9  1  0
  9 10  2  0
 10 11  1  0
 11 12  2  0
 12 13  1  0
 13 14  2  0
 14 15  1  0
 15 16  2  0
 16 17  1  0
 17 18  2  0
 16 19  1  0
 19 20  1  0
 20 21  2  0
 20 22  1  0
 22 23  2  0
 23 24  1  0
 24 25  1  0
 25 26  1  0
 26 27  1  0
 27 28  1  0
 28 29  1  0
 28 30  1  0
 30 31  1  0
 19 32  1  0
 32 33  1  0
 33 34  1  0
  7 35  2  0
 35  3  1  0
 18  9  1  0
 31 25  1  0
 18 13  1  0
 34 15  1  0
M  END
$$$$
