WMXPSZOEUWJJHU-VMPITWQZSA-N_3RCD_m5
     RDKit          3D

 35 39  0  0  0  0  0  0  0  0999 V2000
   21.7250    7.4120   24.0150 C   0  0  0  0  0  0  0  0  0  0  0  0
   20.9780    6.6100   23.5230 C   0  0  0  0  0  0  0  0  0  0  0  0
   20.0870    5.6550   22.9390 C   0  0  0  0  0  0  0  0  0  0  0  0
   20.2790    5.2370   21.6230 C   0  0  0  0  0  0  0  0  0  0  0  0
   19.4110    4.3020   21.0640 C   0  0  0  0  0  0  0  0  0  0  0  0
   18.3500    3.7890   21.8190 C   0  0  0  0  0  0  0  0  0  0  0  0
   18.1290    4.2070   23.1360 C   0  0  0  0  0  0  0  0  0  0  0  0
   17.0920    3.7020   23.9430 N   0  0  0  0  0  0  0  0  0  0  0  0
   17.0670    2.6410   24.8750 C   0  0  0  0  0  0  0  0  0  0  0  0
   18.0750    1.7490   24.8690 N   0  0  0  0  0  0  0  0  0  0  0  0
   18.0150    0.7570   25.7590 C   0  0  0  0  0  0  0  0  0  0  0  0
   17.0500    0.5680   26.6640 N   0  0  0  0  0  0  0  0  0  0  0  0
   16.0610    1.4630   26.6780 C   0  0  0  0  0  0  0  0  0  0  0  0
   15.0520    1.3110   27.6120 C   0  0  0  0  0  0  0  0  0  0  0  0
   13.9870    2.2120   27.7030 C   0  0  0  0  0  0  0  0  0  0  0  0
   13.8740    3.2990   26.8230 C   0  0  0  0  0  0  0  0  0  0  0  0
   14.9030    3.4580   25.8870 C   0  0  0  0  0  0  0  0  0  0  0  0
   15.9990    2.5490   25.7960 C   0  0  0  0  0  0  0  0  0  0  0  0
   12.7140    4.1540   26.8870 N   0  0  0  0  0  0  0  0  0  0  0  0
   12.5180    5.2620   26.0570 C   0  0  0  0  0  0  0  0  0  0  0  0
   13.3320    6.1540   25.8270 O   0  0  0  0  0  0  0  0  0  0  0  0
   11.1900    5.3370   25.3830 C   0  0  0  0  0  0  0  0  0  0  0  0
   10.7770    6.4920   24.8400 C   0  0  0  0  0  0  0  0  0  0  0  0
    9.4750    6.6590   24.1140 C   0  0  0  0  0  0  0  0  0  0  0  0
    8.4450    7.2490   24.9770 N   0  0  0  0  0  0  0  0  0  0  0  0
    8.8260    8.5760   25.5130 C   0  0  0  0  0  0  0  0  0  0  0  0
    8.8200    9.7290   24.4800 C   0  0  0  0  0  0  0  0  0  0  0  0
    7.5360    9.8370   23.7670 N   0  0  0  0  0  0  0  0  0  0  0  0
    7.5900   10.8730   22.7400 C   0  0  0  0  0  0  0  0  0  0  0  0
    7.1550    8.5370   23.1900 C   0  0  0  0  0  0  0  0  0  0  0  0
    7.1660    7.4060   24.2460 C   0  0  0  0  0  0  0  0  0  0  0  0
   11.7130    3.7480   27.8870 C   0  0  0  0  0  0  0  0  0  0  0  0
   12.3610    3.0940   29.0930 C   0  0  0  0  0  0  0  0  0  0  0  0
   13.0800    1.9280   28.6970 O   0  0  0  0  0  0  0  0  0  0  0  0
   19.0240    5.1390   23.6880 C   0  0  0  0  0  0  0  0  0  0  0  0
  1  2  3  0
  2  3  1  0
  3  4  2  0
  4  5  1  0
  5  6  2  0
  6  7  1  0
  7  8  1  0
  8  9  1  0
  9 10  2  0
 10 11  1  0
 11 12  2  0
 12 13  1  0
 13 14  2  0
 14 15  1  0
 15 16  2  0
 16 17  1  0
 17 18  2  0
 16 19  1  0
 19 20  1  0
 20 21  2  0
 20 22  1  0
 22 23  2  0
 23 24  1  0
 24 25  1  0
 25 26  1  0
 26 27  1  0
 27 28  1  0
 28 29  1  0
 28 30  1  0
 30 31  1  0
 19 32  1  0
 32 33  1  0
 33 34  1  0
  7 35  2  0
 35  3  1  0
 18  9  1  0
 31 25  1  0
 18 13  1  0
 34 15  1  0
M  END
$$$$
