WTLXPXUKKTVUIR-INIZCTEOSA-N_8BXH_m1
     RDKit          3D

 26 30  0  0  0  0  0  0  0  0999 V2000
  -13.4570   17.0100   18.7530 C   0  0  0  0  0  0  0  0  0  0  0  0
  -13.3320   15.7420   19.4620 N   0  0  0  0  0  0  0  0  0  0  0  0
  -12.0210   15.2950   19.6580 C   0  0  0  0  0  0  0  0  0  0  0  0
  -11.0640   16.1900   20.0310 N   0  0  0  0  0  0  0  0  0  0  0  0
   -9.7950   15.7680   20.2000 C   0  0  0  0  0  0  0  0  0  0  0  0
   -9.3070   14.5280   20.0630 N   0  0  0  0  0  0  0  0  0  0  0  0
  -10.2770   13.6640   19.7320 C   0  0  0  0  0  0  0  0  0  0  0  0
  -10.0830   12.3220   19.5520 N   0  0  0  0  0  0  0  0  0  0  0  0
  -11.2750   11.7160   19.2570 C   0  0  0  0  0  0  0  0  0  0  0  0
  -12.2460   12.6960   19.2410 C   0  0  0  0  0  0  0  0  0  0  0  0
  -11.6190   13.9470   19.5190 C   0  0  0  0  0  0  0  0  0  0  0  0
  -14.2690   15.4180   20.5510 C   0  0  1  0  0  0  0  0  0  0  0  0
  -14.7880   16.6600   21.3000 C   0  0  0  0  0  0  0  0  0  0  0  0
  -16.0930   16.9530   20.7100 N   0  0  0  0  0  0  0  0  0  0  0  0
  -16.7630   18.1600   20.6990 C   0  0  0  0  0  0  0  0  0  0  0  0
  -16.2990   19.1810   20.1990 O   0  0  0  0  0  0  0  0  0  0  0  0
  -18.0920   18.2360   21.3420 C   0  0  0  0  0  0  0  0  0  0  0  0
  -19.1510   18.8050   20.6270 C   0  0  0  0  0  0  0  0  0  0  0  0
  -20.4180   18.8760   21.2070 C   0  0  0  0  0  0  0  0  0  0  0  0
  -20.6280   18.3660   22.4890 C   0  0  0  0  0  0  0  0  0  0  0  0
  -19.5760   17.7750   23.1910 C   0  0  0  0  0  0  0  0  0  0  0  0
  -18.3060   17.7020   22.6170 C   0  0  0  0  0  0  0  0  0  0  0  0
  -16.6560   15.7990   20.0380 C   0  0  0  0  0  0  0  0  0  0  0  0
  -15.5450   14.7780   20.0200 C   0  0  0  0  0  0  0  0  0  0  0  0
  -15.8620   13.3340   20.3740 C   0  0  0  0  0  0  0  0  0  0  0  0
  -15.5110   13.6900   18.9610 C   0  0  0  0  0  0  0  0  0  0  0  0
  1  2  1  0
  2  3  1  0
  3  4  2  0
  4  5  1  0
  5  6  2  0
  6  7  1  0
  7  8  1  0
  8  9  1  0
  9 10  2  0
 10 11  1  0
 12  2  1  6
 12 13  1  0
 13 14  1  0
 14 15  1  0
 15 16  2  0
 15 17  1  0
 17 18  2  0
 18 19  1  0
 19 20  2  0
 20 21  1  0
 21 22  2  0
 14 23  1  0
 23 24  1  0
 24 25  1  0
 25 26  1  0
 11  3  1  0
 24 12  1  0
 11  7  2  0
 22 17  1  0
 26 24  1  0
M  END
$$$$
