WVAPDSKWUGJHOT-DEOSSOPVSA-N_4UDW_m5
     RDKit          3D

 42 44  0  0  0  0  0  0  0  0999 V2000
  124.8390  -19.0170  162.7340 C   0  0  0  0  0  0  0  0  0  0  0  0
  126.2220  -18.4010  162.5330 C   0  0  0  0  0  0  0  0  0  0  0  0
  127.3400  -19.4010  162.1000 C   0  0  0  0  0  0  0  0  0  0  0  0
  126.6950  -20.8020  161.9570 C   0  0  0  0  0  0  0  0  0  0  0  0
  127.8400  -19.0010  160.6900 C   0  0  0  0  0  0  0  0  0  0  0  0
  128.4580  -19.4820  163.1590 C   0  0  0  0  0  0  0  0  0  0  0  0
  129.8230  -19.4380  162.8220 C   0  0  0  0  0  0  0  0  0  0  0  0
  130.8180  -19.4610  163.8060 C   0  0  0  0  0  0  0  0  0  0  0  0
  130.4600  -19.5380  165.1500 C   0  0  0  0  0  0  0  0  0  0  0  0
  131.7170  -19.4880  166.4040 S   0  0  0  0  0  0  0  0  0  0  0  0
  132.3500  -20.7880  166.4800 O   0  0  0  0  0  0  0  0  0  0  0  0
  131.1540  -18.8470  167.5710 O   0  0  0  0  0  0  0  0  0  0  0  0
  132.8150  -18.4070  165.7470 N   0  0  0  0  0  0  0  0  0  0  0  0
  132.5870  -16.9630  166.0030 C   0  0  1  0  0  0  0  0  0  0  0  0
  133.8040  -16.3620  166.7250 C   0  0  0  0  0  0  0  0  0  0  0  0
  134.8270  -17.4180  167.0820 C   0  0  0  0  0  0  0  0  0  0  0  0
  134.6560  -18.2270  168.2160 C   0  0  0  0  0  0  0  0  0  0  0  0
  135.5730  -19.2380  168.5100 C   0  0  0  0  0  0  0  0  0  0  0  0
  136.6660  -19.4540  167.6720 C   0  0  0  0  0  0  0  0  0  0  0  0
  136.8420  -18.6570  166.5390 C   0  0  0  0  0  0  0  0  0  0  0  0
  137.9970  -18.8900  165.6360 C   0  0  0  0  0  0  0  0  0  0  0  0
  138.5020  -20.0710  165.4580 N   0  0  0  0  0  0  0  0  0  0  0  0
  138.5620  -17.8540  164.9670 N   0  0  0  0  0  0  0  0  0  0  0  0
  135.9310  -17.6380  166.2470 C   0  0  0  0  0  0  0  0  0  0  0  0
  132.4610  -16.2830  164.6300 C   0  0  0  0  0  0  0  0  0  0  0  0
  133.4750  -16.1200  163.9440 O   0  0  0  0  0  0  0  0  0  0  0  0
  131.2200  -15.8330  164.2130 N   0  0  0  0  0  0  0  0  0  0  0  0
  129.9570  -16.1070  164.9060 C   0  0  0  0  0  0  0  0  0  0  0  0
  128.7050  -15.7770  164.0780 C   0  0  0  0  0  0  0  0  0  0  0  0
  128.7600  -14.4350  163.4860 N   0  0  0  0  0  0  0  0  0  0  0  0
  127.6590  -13.6140  163.2640 C   0  0  0  0  0  0  0  0  0  0  0  0
  127.7820  -12.4840  162.7890 O   0  0  0  0  0  0  0  0  0  0  0  0
  126.3010  -14.1760  163.6410 C   0  0  0  0  0  0  0  0  0  0  0  0
  125.2210  -13.0990  163.6450 C   0  0  0  0  0  0  0  0  0  0  0  0
  125.1720  -12.5080  164.9820 N   0  0  0  0  0  0  0  0  0  0  0  0
  124.3990  -13.0590  165.8450 C   0  0  0  0  0  0  0  0  0  0  0  0
  123.5920  -14.1240  165.6980 N   0  0  0  0  0  0  0  0  0  0  0  0
  124.3390  -12.5530  167.0870 N   0  0  0  0  0  0  0  0  0  0  0  0
  130.0770  -13.9540  163.0580 C   0  0  0  0  0  0  0  0  0  0  0  0
  131.1230  -15.0700  162.9640 C   0  0  0  0  0  0  0  0  0  0  0  0
  129.1160  -19.5930  165.5160 C   0  0  0  0  0  0  0  0  0  0  0  0
  128.1300  -19.5750  164.5270 C   0  0  0  0  0  0  0  0  0  0  0  0
  1  2  1  0
  2  3  1  0
  3  4  1  0
  3  5  1  0
  3  6  1  0
  6  7  2  0
  7  8  1  0
  8  9  2  0
  9 10  1  0
 10 11  2  0
 10 12  2  0
 10 13  1  0
 13 14  1  0
 14 15  1  1
 15 16  1  0
 16 17  2  0
 17 18  1  0
 18 19  2  0
 19 20  1  0
 20 21  1  0
 21 22  2  3
 21 23  1  0
 20 24  2  0
 14 25  1  0
 25 26  2  0
 25 27  1  0
 27 28  1  0
 28 29  1  0
 29 30  1  0
 30 31  1  0
 31 32  2  0
 31 33  1  0
 33 34  1  0
 34 35  1  0
 35 36  2  3
 36 37  1  0
 36 38  1  0
 30 39  1  0
 39 40  1  0
  9 41  1  0
 41 42  2  0
 42  6  1  0
 24 16  1  0
 40 27  1  0
M  END
$$$$
