WVWYBUKDEAJOCJ-UHFFFAOYSA-N_3RCD_m3
     RDKit          3D

 29 32  0  0  0  0  0  0  0  0999 V2000
   18.8930    6.5590   24.0540 F   0  0  0  0  0  0  0  0  0  0  0  0
   18.3060    5.3710   24.2490 C   0  0  0  0  0  0  0  0  0  0  0  0
   18.9250    4.2170   23.7820 C   0  0  0  0  0  0  0  0  0  0  0  0
   18.3100    2.9820   23.9810 C   0  0  0  0  0  0  0  0  0  0  0  0
   17.0840    2.9130   24.6470 C   0  0  0  0  0  0  0  0  0  0  0  0
   16.4610    4.0750   25.1340 C   0  0  0  0  0  0  0  0  0  0  0  0
   15.1210    4.0090   25.8260 C   0  0  0  0  0  0  0  0  0  0  0  0
   14.5960    2.6880   25.7140 O   0  0  0  0  0  0  0  0  0  0  0  0
   13.8140    2.2160   26.7330 C   0  0  0  0  0  0  0  0  0  0  0  0
   12.5100    2.6350   26.9960 C   0  0  0  0  0  0  0  0  0  0  0  0
   11.7970    2.0940   28.0740 C   0  0  0  0  0  0  0  0  0  0  0  0
   12.3600    1.1240   28.9150 C   0  0  0  0  0  0  0  0  0  0  0  0
   11.6070    0.6610   30.0010 N   0  0  0  0  0  0  0  0  0  0  0  0
   10.3080    0.8830   30.4560 C   0  0  0  0  0  0  0  0  0  0  0  0
    9.7310    2.1350   30.5340 C   0  0  0  0  0  0  0  0  0  0  0  0
    8.4280    2.2190   30.9950 C   0  0  0  0  0  0  0  0  0  0  0  0
    7.7000    3.5010   31.1200 C   0  0  0  0  0  0  0  0  0  0  0  0
    7.0690    4.1170   30.0230 C   0  0  0  0  0  0  0  0  0  0  0  0
    6.3910    5.3330   30.1610 C   0  0  0  0  0  0  0  0  0  0  0  0
    6.3240    5.9600   31.4020 C   0  0  0  0  0  0  0  0  0  0  0  0
    6.9300    5.3690   32.5050 C   0  0  0  0  0  0  0  0  0  0  0  0
    7.6070    4.1530   32.3650 C   0  0  0  0  0  0  0  0  0  0  0  0
    7.7420    1.1160   31.3620 N   0  0  0  0  0  0  0  0  0  0  0  0
    8.3760   -0.0530   31.2300 C   0  0  0  0  0  0  0  0  0  0  0  0
    9.6260   -0.2260   30.7830 N   0  0  0  0  0  0  0  0  0  0  0  0
   13.6640    0.7080   28.6460 C   0  0  0  0  0  0  0  0  0  0  0  0
   14.3830    1.2440   27.5700 C   0  0  0  0  0  0  0  0  0  0  0  0
   15.9910    0.6610   27.3030 Cl  0  0  0  0  0  0  0  0  0  0  0  0
   17.0840    5.3130   24.9150 C   0  0  0  0  0  0  0  0  0  0  0  0
  1  2  1  0
  2  3  2  0
  3  4  1  0
  4  5  2  0
  5  6  1  0
  6  7  1  0
  7  8  1  0
  8  9  1  0
  9 10  2  0
 10 11  1  0
 11 12  2  0
 12 13  1  0
 13 14  1  0
 14 15  2  0
 15 16  1  0
 16 17  1  0
 17 18  2  0
 18 19  1  0
 19 20  2  0
 20 21  1  0
 21 22  2  0
 16 23  2  0
 23 24  1  0
 24 25  2  0
 12 26  1  0
 26 27  2  0
 27 28  1  0
  6 29  2  0
 29  2  1  0
 27  9  1  0
 25 14  1  0
 22 17  1  0
M  END
$$$$
