WYIDWASMEIZPJM-UHFFFAOYSA-N_9V8H_m2
     RDKit          3D

 43 47  0  0  0  0  0  0  0  0999 V2000
   -6.1960  -10.5730  -25.0310 C   0  0  0  0  0  0  0  0  0  0  0  0
   -7.0060  -10.1270  -26.2390 C   0  0  0  0  0  0  0  0  0  0  0  0
   -7.3260   -8.6300  -26.2410 C   0  0  0  0  0  0  0  0  0  0  0  0
   -8.8060   -8.3210  -26.1700 C   0  0  0  0  0  0  0  0  0  0  0  0
   -9.4830   -7.9830  -27.3550 C   0  0  0  0  0  0  0  0  0  0  0  0
  -10.8510   -7.6920  -27.3420 C   0  0  0  0  0  0  0  0  0  0  0  0
  -11.5100   -7.3220  -28.6200 C   0  0  0  0  0  0  0  0  0  0  0  0
  -12.2310   -8.1420  -29.1840 O   0  0  0  0  0  0  0  0  0  0  0  0
  -11.3140   -5.9870  -29.2380 C   0  0  0  0  0  0  0  0  0  0  0  0
  -11.8090   -4.8220  -28.6460 C   0  0  0  0  0  0  0  0  0  0  0  0
  -11.6060   -3.5840  -29.2660 C   0  0  0  0  0  0  0  0  0  0  0  0
  -10.9180   -3.4870  -30.4870 C   0  0  0  0  0  0  0  0  0  0  0  0
  -10.6980   -2.1820  -31.1310 C   0  0  0  0  0  0  0  0  0  0  0  0
  -11.7730   -1.3180  -31.3970 C   0  0  0  0  0  0  0  0  0  0  0  0
  -11.5660   -0.0790  -32.0120 C   0  0  0  0  0  0  0  0  0  0  0  0
  -10.2800    0.3150  -32.3710 C   0  0  0  0  0  0  0  0  0  0  0  0
   -9.2000   -0.5270  -32.1150 C   0  0  0  0  0  0  0  0  0  0  0  0
   -9.4080   -1.7660  -31.5020 C   0  0  0  0  0  0  0  0  0  0  0  0
  -10.4500   -4.6720  -31.0780 C   0  0  0  0  0  0  0  0  0  0  0  0
  -10.6510   -5.9120  -30.4660 C   0  0  0  0  0  0  0  0  0  0  0  0
  -11.5450   -7.7060  -26.1310 C   0  0  0  0  0  0  0  0  0  0  0  0
  -10.8810   -8.0370  -24.9450 C   0  0  0  0  0  0  0  0  0  0  0  0
   -9.5170   -8.3490  -24.9560 C   0  0  0  0  0  0  0  0  0  0  0  0
   -8.7840   -8.6590  -23.8420 O   0  0  0  0  0  0  0  0  0  0  0  0
   -9.4520   -9.3130  -22.7660 C   0  0  0  0  0  0  0  0  0  0  0  0
   -9.0950   -8.5920  -21.4660 C   0  0  0  0  0  0  0  0  0  0  0  0
   -7.5930   -8.3710  -21.2820 C   0  0  0  0  0  0  0  0  0  0  0  0
   -7.2300   -6.9750  -21.0970 N   0  0  0  0  0  0  0  0  0  0  0  0
   -8.1130   -5.9310  -21.2050 C   0  0  0  0  0  0  0  0  0  0  0  0
   -7.4260   -4.7690  -20.9530 C   0  0  0  0  0  0  0  0  0  0  0  0
   -6.0700   -5.1120  -20.6820 C   0  0  0  0  0  0  0  0  0  0  0  0
   -4.9130   -4.3630  -20.3720 C   0  0  0  0  0  0  0  0  0  0  0  0
   -4.9920   -2.9970  -20.2560 O   0  0  0  0  0  0  0  0  0  0  0  0
   -4.2100   -2.2340  -21.1960 C   0  0  0  0  0  0  0  0  0  0  0  0
   -3.7540   -3.0390  -22.4270 C   0  0  0  0  0  0  0  0  0  0  0  0
   -5.1700   -1.1300  -21.6750 C   0  0  0  0  0  0  0  0  0  0  0  0
   -3.0260   -1.5050  -20.5310 C   0  0  0  0  0  0  0  0  0  0  0  0
   -2.1920   -0.7950  -21.0730 O   0  0  0  0  0  0  0  0  0  0  0  0
   -2.9040   -1.7570  -19.2080 O   0  0  0  0  0  0  0  0  0  0  0  0
   -3.7190   -5.0320  -20.0850 C   0  0  0  0  0  0  0  0  0  0  0  0
   -3.6480   -6.4200  -20.1710 C   0  0  0  0  0  0  0  0  0  0  0  0
   -4.7670   -7.1800  -20.5230 C   0  0  0  0  0  0  0  0  0  0  0  0
   -5.9750   -6.5050  -20.7650 C   0  0  0  0  0  0  0  0  0  0  0  0
  1  2  1  0
  2  3  1  0
  3  4  1  0
  4  5  2  0
  5  6  1  0
  6  7  1  0
  7  8  2  0
  7  9  1  0
  9 10  2  0
 10 11  1  0
 11 12  2  0
 12 13  1  0
 13 14  2  0
 14 15  1  0
 15 16  2  0
 16 17  1  0
 17 18  2  0
 12 19  1  0
 19 20  2  0
  6 21  2  0
 21 22  1  0
 22 23  2  0
 23 24  1  0
 24 25  1  0
 25 26  1  0
 26 27  1  0
 27 28  1  0
 28 29  1  0
 29 30  2  0
 30 31  1  0
 31 32  2  0
 32 33  1  0
 33 34  1  0
 34 35  1  0
 34 36  1  0
 34 37  1  0
 37 38  2  0
 37 39  1  0
 32 40  1  0
 40 41  2  0
 41 42  1  0
 42 43  2  0
 23  4  1  0
 43 28  1  0
 20  9  1  0
 43 31  1  0
 18 13  1  0
M  END
$$$$
