XAKLZFYPIQVZMO-UHFFFAOYSA-N_3RCD_m5
     RDKit          3D

 34 37  0  0  0  0  0  0  0  0999 V2000
    5.1380    4.4000   35.2130 N   0  0  0  0  0  0  0  0  0  0  0  0
    5.4400    4.3840   34.0930 C   0  0  0  0  0  0  0  0  0  0  0  0
    5.8030    4.3100   32.7220 C   0  0  0  0  0  0  0  0  0  0  0  0
    6.0050    5.5140   31.9920 C   0  0  0  0  0  0  0  0  0  0  0  0
    6.1680    6.4740   31.3620 N   0  0  0  0  0  0  0  0  0  0  0  0
    5.9520    3.1230   32.1010 C   0  0  0  0  0  0  0  0  0  0  0  0
    5.8190    1.8500   32.6110 N   0  0  0  0  0  0  0  0  0  0  0  0
    6.6210    0.7170   32.3860 C   0  0  0  0  0  0  0  0  0  0  0  0
    6.0960   -0.5430   32.6800 C   0  0  0  0  0  0  0  0  0  0  0  0
    6.8530   -1.7040   32.4870 C   0  0  0  0  0  0  0  0  0  0  0  0
    8.1510   -1.6580   32.0070 C   0  0  0  0  0  0  0  0  0  0  0  0
    8.8030   -2.8110   31.8350 N   0  0  0  0  0  0  0  0  0  0  0  0
   10.0480   -2.7290   31.3590 C   0  0  0  0  0  0  0  0  0  0  0  0
   10.7010   -1.6050   31.0520 N   0  0  0  0  0  0  0  0  0  0  0  0
   10.0460   -0.4460   31.2500 C   0  0  0  0  0  0  0  0  0  0  0  0
   10.7180    0.7660   30.9750 N   0  0  0  0  0  0  0  0  0  0  0  0
   11.4570    1.1630   29.8460 C   0  0  0  0  0  0  0  0  0  0  0  0
   11.1010    2.2540   29.0470 C   0  0  0  0  0  0  0  0  0  0  0  0
   11.8730    2.6370   27.9390 C   0  0  0  0  0  0  0  0  0  0  0  0
   13.0350    1.9370   27.6120 C   0  0  0  0  0  0  0  0  0  0  0  0
   13.8470    2.2250   26.5480 O   0  0  0  0  0  0  0  0  0  0  0  0
   14.5000    3.4920   26.5290 C   0  0  0  0  0  0  0  0  0  0  0  0
   15.8320    3.3580   25.8270 C   0  0  0  0  0  0  0  0  0  0  0  0
   16.3820    4.4330   25.1070 C   0  0  0  0  0  0  0  0  0  0  0  0
   17.5990    4.2970   24.4360 C   0  0  0  0  0  0  0  0  0  0  0  0
   18.2780    3.0800   24.4670 C   0  0  0  0  0  0  0  0  0  0  0  0
   17.7300    2.0110   25.1650 C   0  0  0  0  0  0  0  0  0  0  0  0
   18.3780    0.8390   25.1900 F   0  0  0  0  0  0  0  0  0  0  0  0
   16.5190    2.1360   25.8380 C   0  0  0  0  0  0  0  0  0  0  0  0
   13.4090    0.8560   28.4200 C   0  0  0  0  0  0  0  0  0  0  0  0
   14.8460   -0.0560   28.0960 Cl  0  0  0  0  0  0  0  0  0  0  0  0
   12.6350    0.4780   29.5250 C   0  0  0  0  0  0  0  0  0  0  0  0
    8.7170   -0.4100   31.7250 C   0  0  0  0  0  0  0  0  0  0  0  0
    7.9360    0.7680   31.9140 C   0  0  0  0  0  0  0  0  0  0  0  0
  1  2  3  0
  2  3  1  0
  3  4  1  0
  4  5  3  0
  3  6  2  3
  6  7  1  0
  7  8  1  0
  8  9  2  0
  9 10  1  0
 10 11  2  0
 11 12  1  0
 12 13  2  0
 13 14  1  0
 14 15  2  0
 15 16  1  0
 16 17  1  0
 17 18  2  0
 18 19  1  0
 19 20  2  0
 20 21  1  0
 21 22  1  0
 22 23  1  0
 23 24  2  0
 24 25  1  0
 25 26  2  0
 26 27  1  0
 27 28  1  0
 27 29  2  0
 20 30  1  0
 30 31  1  0
 30 32  2  0
 15 33  1  0
 33 34  2  0
 34  8  1  0
 33 11  1  0
 32 17  1  0
 29 23  1  0
M  END
$$$$
