XAKLZFYPIQVZMO-UHFFFAOYSA-N_3RCD_m4
     RDKit          3D

 34 37  0  0  0  0  0  0  0  0999 V2000
   14.2720    4.5650   23.0060 N   0  0  0  0  0  0  0  0  0  0  0  0
   14.9190    5.1660   23.7580 C   0  0  0  0  0  0  0  0  0  0  0  0
   15.7500    5.8640   24.6750 C   0  0  0  0  0  0  0  0  0  0  0  0
   15.3550    7.1540   25.1250 C   0  0  0  0  0  0  0  0  0  0  0  0
   15.0710    8.2120   25.5060 N   0  0  0  0  0  0  0  0  0  0  0  0
   16.9050    5.3290   25.1180 C   0  0  0  0  0  0  0  0  0  0  0  0
   17.4670    4.1060   24.8260 N   0  0  0  0  0  0  0  0  0  0  0  0
   17.2360    2.8580   25.4300 C   0  0  0  0  0  0  0  0  0  0  0  0
   18.0400    1.7770   25.0620 C   0  0  0  0  0  0  0  0  0  0  0  0
   17.8460    0.5090   25.6230 C   0  0  0  0  0  0  0  0  0  0  0  0
   16.8520    0.2660   26.5550 C   0  0  0  0  0  0  0  0  0  0  0  0
   16.7410   -0.9670   27.0540 N   0  0  0  0  0  0  0  0  0  0  0  0
   15.7780   -1.1610   27.9600 C   0  0  0  0  0  0  0  0  0  0  0  0
   14.9140   -0.2430   28.4000 N   0  0  0  0  0  0  0  0  0  0  0  0
   15.0170    0.9920   27.8730 C   0  0  0  0  0  0  0  0  0  0  0  0
   14.0950    1.9810   28.2840 N   0  0  0  0  0  0  0  0  0  0  0  0
   12.9200    1.8710   29.0500 C   0  0  0  0  0  0  0  0  0  0  0  0
   11.6390    1.9870   28.5020 C   0  0  0  0  0  0  0  0  0  0  0  0
   10.4870    1.8500   29.2920 C   0  0  0  0  0  0  0  0  0  0  0  0
   10.5940    1.5800   30.6570 C   0  0  0  0  0  0  0  0  0  0  0  0
    9.5330    1.4400   31.5110 O   0  0  0  0  0  0  0  0  0  0  0  0
    8.2210    1.6120   30.9810 C   0  0  0  0  0  0  0  0  0  0  0  0
    7.7630    3.0310   31.2270 C   0  0  0  0  0  0  0  0  0  0  0  0
    7.8940    3.6240   32.4950 C   0  0  0  0  0  0  0  0  0  0  0  0
    7.4440    4.9260   32.7250 C   0  0  0  0  0  0  0  0  0  0  0  0
    6.8470    5.6490   31.6940 C   0  0  0  0  0  0  0  0  0  0  0  0
    6.7030    5.0600   30.4440 C   0  0  0  0  0  0  0  0  0  0  0  0
    6.1230    5.7510   29.4530 F   0  0  0  0  0  0  0  0  0  0  0  0
    7.1480    3.7650   30.2020 C   0  0  0  0  0  0  0  0  0  0  0  0
   11.8740    1.4420   31.2090 C   0  0  0  0  0  0  0  0  0  0  0  0
   12.0960    1.0890   32.8900 Cl  0  0  0  0  0  0  0  0  0  0  0  0
   13.0210    1.5800   30.4160 C   0  0  0  0  0  0  0  0  0  0  0  0
   16.0120    1.3220   26.9280 C   0  0  0  0  0  0  0  0  0  0  0  0
   16.2220    2.6130   26.3610 C   0  0  0  0  0  0  0  0  0  0  0  0
  1  2  3  0
  2  3  1  0
  3  4  1  0
  4  5  3  0
  3  6  2  3
  6  7  1  0
  7  8  1  0
  8  9  2  0
  9 10  1  0
 10 11  2  0
 11 12  1  0
 12 13  2  0
 13 14  1  0
 14 15  2  0
 15 16  1  0
 16 17  1  0
 17 18  2  0
 18 19  1  0
 19 20  2  0
 20 21  1  0
 21 22  1  0
 22 23  1  0
 23 24  2  0
 24 25  1  0
 25 26  2  0
 26 27  1  0
 27 28  1  0
 27 29  2  0
 20 30  1  0
 30 31  1  0
 30 32  2  0
 15 33  1  0
 33 34  2  0
 34  8  1  0
 33 11  1  0
 32 17  1  0
 29 23  1  0
M  END
$$$$
