XASLTUJPGBFIAT-UHFFFAOYSA-N_6N7A_m1
     RDKit          3D

 28 30  0  0  0  0  0  0  0  0999 V2000
    9.2500  -25.6090   25.4740 N   0  0  0  0  0  0  0  0  0  0  0  0
    8.6920  -25.7120   24.3060 C   0  0  0  0  0  0  0  0  0  0  0  0
    7.8220  -24.6730   23.7210 C   0  0  0  0  0  0  0  0  0  0  0  0
    8.3330  -23.4170   23.4240 C   0  0  0  0  0  0  0  0  0  0  0  0
    9.6550  -23.0560   23.6300 N   0  0  0  0  0  0  0  0  0  0  0  0
    7.5690  -22.4310   22.9380 N   0  0  0  0  0  0  0  0  0  0  0  0
    6.2730  -22.7090   22.7140 C   0  0  0  0  0  0  0  0  0  0  0  0
    5.4440  -21.6280   22.1380 C   0  0  0  0  0  0  0  0  0  0  0  0
    4.7670  -20.7650   23.0310 C   0  0  0  0  0  0  0  0  0  0  0  0
    3.9720  -19.7230   22.5710 C   0  0  0  0  0  0  0  0  0  0  0  0
    3.3460  -18.9220   23.4450 F   0  0  0  0  0  0  0  0  0  0  0  0
    3.8180  -19.5040   21.2130 C   0  0  0  0  0  0  0  0  0  0  0  0
    3.0390  -18.4880   20.7440 O   0  0  0  0  0  0  0  0  0  0  0  0
    4.4590  -20.3280   20.3010 C   0  0  0  0  0  0  0  0  0  0  0  0
    5.2740  -21.3970   20.7430 C   0  0  0  0  0  0  0  0  0  0  0  0
    5.9140  -22.2580   19.6670 C   0  0  0  0  0  0  0  0  0  0  0  0
    5.1160  -23.5050   19.3140 C   0  0  0  0  0  0  0  0  0  0  0  0
    5.1540  -23.8080   18.0010 F   0  0  0  0  0  0  0  0  0  0  0  0
    3.8160  -23.3690   19.6660 F   0  0  0  0  0  0  0  0  0  0  0  0
    5.5940  -24.5760   19.9930 F   0  0  0  0  0  0  0  0  0  0  0  0
    5.6990  -23.8980   22.9440 N   0  0  0  0  0  0  0  0  0  0  0  0
    6.4720  -24.8820   23.4480 C   0  0  0  0  0  0  0  0  0  0  0  0
    5.8670  -26.0900   23.7510 N   0  0  0  0  0  0  0  0  0  0  0  0
    5.5700  -27.0700   22.7290 C   0  0  0  0  0  0  0  0  0  0  0  0
    4.0570  -27.2570   22.5980 C   0  0  0  0  0  0  0  0  0  0  0  0
    3.5220  -26.5740   21.3720 C   0  0  0  0  0  0  0  0  0  0  0  0
    2.2510  -27.0640   20.7270 C   0  0  0  0  0  0  0  0  0  0  0  0
    2.2680  -25.7440   21.4480 C   0  0  0  0  0  0  0  0  0  0  0  0
  1  2  2  3
  2  3  1  0
  3  4  2  0
  4  5  1  0
  4  6  1  0
  6  7  2  0
  7  8  1  0
  8  9  2  0
  9 10  1  0
 10 11  1  0
 10 12  2  0
 12 13  1  0
 12 14  1  0
 14 15  2  0
 15 16  1  0
 16 17  1  0
 17 18  1  0
 17 19  1  0
 17 20  1  0
  7 21  1  0
 21 22  2  0
 22 23  1  0
 23 24  1  0
 24 25  1  0
 25 26  1  0
 26 27  1  0
 27 28  1  0
 22  3  1  0
 28 26  1  0
 15  8  1  0
M  END
$$$$
