XBTPFPWYGMNPPA-UHFFFAOYSA-N_2JKH_m6
     RDKit          3D

 38 41  0  0  0  0  0  0  0  0999 V2000
   -5.6320   14.6920   26.2620 C   0  0  0  0  0  0  0  0  0  0  0  0
   -4.2840   14.0780   25.9310 C   0  0  0  0  0  0  0  0  0  0  0  0
   -4.4990   12.6970   25.6140 O   0  0  0  0  0  0  0  0  0  0  0  0
   -4.1460   12.4300   24.3150 C   0  0  0  0  0  0  0  0  0  0  0  0
   -5.1330   12.6420   23.3490 C   0  0  0  0  0  0  0  0  0  0  0  0
   -4.8580   12.4390   21.9890 C   0  0  0  0  0  0  0  0  0  0  0  0
   -5.9450   12.7110   20.9570 C   0  0  1  0  0  0  0  0  0  0  0  0
   -5.2820   13.0880   19.6950 N   0  0  0  0  0  0  0  0  0  0  0  0
   -5.3850   12.3920   18.5040 C   0  0  0  0  0  0  0  0  0  0  0  0
   -4.3100   11.5840   18.1050 C   0  0  0  0  0  0  0  0  0  0  0  0
   -4.3620   10.8260   16.9300 C   0  0  0  0  0  0  0  0  0  0  0  0
   -5.5080   10.8560   16.1350 C   0  0  0  0  0  0  0  0  0  0  0  0
   -5.5780   10.0490   14.8900 C   0  0  0  0  0  0  0  0  0  0  0  0
   -6.3050    8.9820   14.7960 N   0  0  0  0  0  0  0  0  0  0  0  0
   -4.8720   10.4180   13.7930 N   0  0  0  0  0  0  0  0  0  0  0  0
   -6.5970   11.6360   16.5250 C   0  0  0  0  0  0  0  0  0  0  0  0
   -6.5330   12.3910   17.7030 C   0  0  0  0  0  0  0  0  0  0  0  0
   -6.9050   11.5000   20.7800 C   0  0  0  0  0  0  0  0  0  0  0  0
   -8.1110   11.6310   20.5810 O   0  0  0  0  0  0  0  0  0  0  0  0
   -6.2960   10.2710   20.9170 N   0  0  0  0  0  0  0  0  0  0  0  0
   -7.0150    9.0240   20.9260 C   0  0  0  0  0  0  0  0  0  0  0  0
   -6.3840    8.0520   19.9620 C   0  0  0  0  0  0  0  0  0  0  0  0
   -7.0850    6.9210   19.5220 C   0  0  0  0  0  0  0  0  0  0  0  0
   -6.5030    6.0440   18.6030 C   0  0  0  0  0  0  0  0  0  0  0  0
   -5.2230    6.2950   18.1120 C   0  0  0  0  0  0  0  0  0  0  0  0
   -4.5220    7.4220   18.5360 C   0  0  0  0  0  0  0  0  0  0  0  0
   -5.0990    8.2980   19.4550 C   0  0  0  0  0  0  0  0  0  0  0  0
   -3.5540   12.0620   21.6250 C   0  0  0  0  0  0  0  0  0  0  0  0
   -2.5620   11.8670   22.5970 C   0  0  0  0  0  0  0  0  0  0  0  0
   -2.8460   12.0540   23.9510 C   0  0  0  0  0  0  0  0  0  0  0  0
   -1.9440   11.9230   24.9700 O   0  0  0  0  0  0  0  0  0  0  0  0
   -1.0010   10.8560   24.8980 C   0  0  0  0  0  0  0  0  0  0  0  0
   -1.3300    9.8210   25.9500 C   0  0  0  0  0  0  0  0  0  0  0  0
   -2.4420    9.9740   26.7920 C   0  0  0  0  0  0  0  0  0  0  0  0
   -2.7190    9.0310   27.7840 C   0  0  0  0  0  0  0  0  0  0  0  0
   -1.8820    7.9310   27.9540 C   0  0  0  0  0  0  0  0  0  0  0  0
   -0.7670    7.7730   27.1340 C   0  0  0  0  0  0  0  0  0  0  0  0
   -0.4880    8.7140   26.1400 C   0  0  0  0  0  0  0  0  0  0  0  0
  1  2  1  0
  2  3  1  0
  3  4  1  0
  4  5  2  0
  5  6  1  0
  6  7  1  0
  7  8  1  6
  8  9  1  0
  9 10  2  0
 10 11  1  0
 11 12  2  0
 12 13  1  0
 13 14  2  3
 13 15  1  0
 12 16  1  0
 16 17  2  0
  7 18  1  0
 18 19  2  0
 18 20  1  0
 20 21  1  0
 21 22  1  0
 22 23  2  0
 23 24  1  0
 24 25  2  0
 25 26  1  0
 26 27  2  0
  6 28  2  0
 28 29  1  0
 29 30  2  0
 30 31  1  0
 31 32  1  0
 32 33  1  0
 33 34  2  0
 34 35  1  0
 35 36  2  0
 36 37  1  0
 37 38  2  0
 30  4  1  0
 38 33  1  0
 17  9  1  0
 27 22  1  0
M  END
$$$$
