XGGPNQWFYUZWNO-QGZVFWFLSA-N_3RCD_m9
     RDKit          3D

 35 39  0  0  0  0  0  0  0  0999 V2000
   14.6230    8.5070   24.9200 C   0  0  0  0  0  0  0  0  0  0  0  0
   14.1440    7.4570   23.9220 C   0  0  1  0  0  0  0  0  0  0  0  0
   15.0350    6.3350   24.0590 O   0  0  0  0  0  0  0  0  0  0  0  0
   15.6880    5.9530   22.9110 C   0  0  0  0  0  0  0  0  0  0  0  0
   15.4350    6.6350   21.7160 C   0  0  0  0  0  0  0  0  0  0  0  0
   16.1160    6.2810   20.5630 C   0  0  0  0  0  0  0  0  0  0  0  0
   17.0700    5.2690   20.6180 C   0  0  0  0  0  0  0  0  0  0  0  0
   17.3840    4.6110   21.7990 C   0  0  0  0  0  0  0  0  0  0  0  0
   18.3460    3.6910   21.7290 N   0  0  0  0  0  0  0  0  0  0  0  0
   18.6810    3.0870   22.8690 C   0  0  0  0  0  0  0  0  0  0  0  0
   18.1390    3.3150   24.0630 N   0  0  0  0  0  0  0  0  0  0  0  0
   17.1430    4.2250   24.1270 C   0  0  0  0  0  0  0  0  0  0  0  0
   16.5560    4.4630   25.3850 N   0  0  0  0  0  0  0  0  0  0  0  0
   15.6060    3.7340   26.1240 C   0  0  0  0  0  0  0  0  0  0  0  0
   16.0230    2.5750   26.7970 C   0  0  0  0  0  0  0  0  0  0  0  0
   15.1390    1.7710   27.5330 C   0  0  0  0  0  0  0  0  0  0  0  0
   13.7980    2.1650   27.5680 C   0  0  0  0  0  0  0  0  0  0  0  0
   13.3430    3.3040   26.9140 C   0  0  0  0  0  0  0  0  0  0  0  0
   11.9600    3.3490   27.1950 C   0  0  0  0  0  0  0  0  0  0  0  0
   11.5510    2.3320   27.9580 N   0  0  0  0  0  0  0  0  0  0  0  0
   12.6870    1.6270   28.1760 N   0  0  0  0  0  0  0  0  0  0  0  0
   12.6250    0.3980   28.9520 C   0  0  0  0  0  0  0  0  0  0  0  0
   11.9910    0.6250   30.2990 C   0  0  0  0  0  0  0  0  0  0  0  0
   12.6300    1.4000   31.2690 C   0  0  0  0  0  0  0  0  0  0  0  0
   12.0060    1.5900   32.4990 C   0  0  0  0  0  0  0  0  0  0  0  0
   10.7660    1.0090   32.7300 C   0  0  0  0  0  0  0  0  0  0  0  0
   10.1950    0.2610   31.7160 C   0  0  0  0  0  0  0  0  0  0  0  0
   10.7730    0.0610   30.5100 N   0  0  0  0  0  0  0  0  0  0  0  0
   14.2500    4.0920   26.1820 C   0  0  0  0  0  0  0  0  0  0  0  0
   16.7040    4.9450   22.9840 C   0  0  0  0  0  0  0  0  0  0  0  0
   12.7030    7.0390   24.2780 C   0  0  0  0  0  0  0  0  0  0  0  0
   12.4420    6.6810   25.4310 O   0  0  0  0  0  0  0  0  0  0  0  0
   11.7250    7.0730   23.2890 N   0  0  0  0  0  0  0  0  0  0  0  0
   11.9290    7.4340   21.8940 C   0  0  0  0  0  0  0  0  0  0  0  0
   10.3730    6.6540   23.6310 C   0  0  0  0  0  0  0  0  0  0  0  0
  2  1  1  1
  2  3  1  0
  3  4  1  0
  4  5  2  0
  5  6  1  0
  6  7  2  0
  7  8  1  0
  8  9  2  0
  9 10  1  0
 10 11  2  0
 11 12  1  0
 12 13  1  0
 13 14  1  0
 14 15  2  0
 15 16  1  0
 16 17  2  0
 17 18  1  0
 18 19  1  0
 19 20  2  0
 20 21  1  0
 21 22  1  0
 22 23  1  0
 23 24  2  0
 24 25  1  0
 25 26  2  0
 26 27  1  0
 27 28  2  0
 18 29  2  0
 12 30  2  0
  2 31  1  0
 31 32  2  0
 31 33  1  0
 33 34  1  0
 33 35  1  0
 30  4  1  0
 30  8  1  0
 29 14  1  0
 21 17  1  0
 28 23  1  0
M  END
$$$$
