XGULBHANUDZVLI-LLJLJFOGSA-N_6N7A_m6
     RDKit          3D

 44 48  0  0  0  0  0  0  0  0999 V2000
    3.3930  -14.1960   16.0590 C   0  0  0  0  0  0  0  0  0  0  0  0
    2.9730  -14.2580   17.4170 O   0  0  0  0  0  0  0  0  0  0  0  0
    1.6250  -14.7210   17.5610 C   0  0  0  0  0  0  0  0  0  0  0  0
    0.9520  -14.1920   18.8530 C   0  0  2  0  0  0  0  0  0  0  0  0
    1.7310  -14.8500   20.0160 C   0  0  0  0  0  0  0  0  0  0  0  0
    1.8430  -14.2830   21.1000 O   0  0  0  0  0  0  0  0  0  0  0  0
    2.2990  -16.0580   19.6520 N   0  0  0  0  0  0  0  0  0  0  0  0
    3.0980  -16.9410   20.3990 C   0  0  0  0  0  0  0  0  0  0  0  0
    2.4270  -17.8060   21.2800 C   0  0  0  0  0  0  0  0  0  0  0  0
    3.1100  -18.7170   22.0830 C   0  0  0  0  0  0  0  0  0  0  0  0
    4.5020  -18.7910   22.0350 C   0  0  0  0  0  0  0  0  0  0  0  0
    5.2180  -17.9450   21.1640 C   0  0  0  0  0  0  0  0  0  0  0  0
    6.6150  -17.7590   20.8940 C   0  0  0  0  0  0  0  0  0  0  0  0
    7.7700  -18.4370   21.4690 C   0  0  0  0  0  0  0  0  0  0  0  0
    7.7470  -19.7920   21.4020 N   0  0  0  0  0  0  0  0  0  0  0  0
    8.7840  -20.4610   21.9300 C   0  0  0  0  0  0  0  0  0  0  0  0
    8.7330  -21.8420   21.7920 N   0  0  0  0  0  0  0  0  0  0  0  0
    7.8020  -22.8190   22.1660 C   0  0  0  0  0  0  0  0  0  0  0  0
    7.8910  -23.5730   23.3430 C   0  0  0  0  0  0  0  0  0  0  0  0
    6.9430  -24.5590   23.6490 C   0  0  0  0  0  0  0  0  0  0  0  0
    5.8910  -24.8190   22.7730 C   0  0  0  0  0  0  0  0  0  0  0  0
    5.7990  -24.0860   21.5900 C   0  0  0  0  0  0  0  0  0  0  0  0
    4.4970  -24.3970   20.4460 S   0  0  0  0  0  0  0  0  0  0  0  0
    3.5560  -25.7130   21.1730 C   0  0  0  0  0  0  0  0  0  0  0  0
    3.6430  -23.2230   20.4380 O   0  0  0  0  0  0  0  0  0  0  0  0
    5.1010  -24.8710   19.2170 O   0  0  0  0  0  0  0  0  0  0  0  0
    6.7350  -23.0990   21.2950 C   0  0  0  0  0  0  0  0  0  0  0  0
    6.6480  -22.4050   20.1480 F   0  0  0  0  0  0  0  0  0  0  0  0
    9.8270  -19.8570   22.5230 N   0  0  0  0  0  0  0  0  0  0  0  0
    9.8140  -18.5090   22.5730 C   0  0  0  0  0  0  0  0  0  0  0  0
    8.8050  -17.7430   22.0550 C   0  0  0  0  0  0  0  0  0  0  0  0
    8.8450  -16.4070   22.1520 F   0  0  0  0  0  0  0  0  0  0  0  0
    6.7060  -16.7650   19.9400 C   0  0  0  0  0  0  0  0  0  0  0  0
    5.4410  -16.3450   19.6430 N   0  0  0  0  0  0  0  0  0  0  0  0
    4.5000  -17.0420   20.3680 C   0  0  0  0  0  0  0  0  0  0  0  0
   -0.5130  -14.5100   18.9870 N   0  0  0  0  0  0  0  0  0  0  0  0
   -0.7420  -15.6200   19.9470 C   0  0  0  0  0  0  0  0  0  0  0  0
   -2.2330  -16.0800   20.0400 C   0  0  2  0  0  0  0  0  0  0  0  0
   -2.2990  -17.2880   20.9870 C   0  0  0  0  0  0  0  0  0  0  0  0
   -2.8100  -16.3880   18.7080 N   0  0  0  0  0  0  0  0  0  0  0  0
   -4.2140  -16.7840   18.7630 C   0  0  0  0  0  0  0  0  0  0  0  0
   -2.5740  -15.2870   17.7460 C   0  0  1  0  0  0  0  0  0  0  0  0
   -3.3970  -14.0110   18.0000 C   0  0  0  0  0  0  0  0  0  0  0  0
   -1.0590  -14.9490   17.6760 C   0  0  0  0  0  0  0  0  0  0  0  0
  1  2  1  0
  2  3  1  0
  4  3  1  6
  4  5  1  0
  5  6  2  0
  5  7  1  0
  7  8  1  0
  8  9  2  0
  9 10  1  0
 10 11  2  0
 11 12  1  0
 12 13  1  0
 13 14  1  0
 14 15  2  0
 15 16  1  0
 16 17  1  0
 17 18  1  0
 18 19  2  0
 19 20  1  0
 20 21  2  0
 21 22  1  0
 22 23  1  0
 23 24  1  0
 23 25  2  0
 23 26  2  0
 22 27  2  0
 27 28  1  0
 16 29  2  0
 29 30  1  0
 30 31  2  0
 31 32  1  0
 13 33  2  0
 33 34  1  0
 34 35  1  0
  4 36  1  0
 36 37  1  0
 37 38  1  0
 38 39  1  1
 38 40  1  0
 40 41  1  0
 40 42  1  0
 42 43  1  1
 42 44  1  0
 35  8  1  0
 44 36  1  0
 35 12  2  0
 31 14  1  0
 27 18  1  0
M  END
$$$$
