XIEDBRMNHVILCQ-UHFFFAOYSA-N_3RCD_m6
     RDKit          3D

 22 25  0  0  0  0  0  0  0  0999 V2000
   16.3110    1.1590   27.1920 C   0  0  0  0  0  0  0  0  0  0  0  0
   15.7570    2.4710   26.6970 C   0  0  0  0  0  0  0  0  0  0  0  0
   16.5940    3.2870   25.9110 C   0  0  0  0  0  0  0  0  0  0  0  0
   16.1490    4.5120   25.4200 C   0  0  0  0  0  0  0  0  0  0  0  0
   14.8590    4.9420   25.7040 C   0  0  0  0  0  0  0  0  0  0  0  0
   14.0160    4.1440   26.4810 C   0  0  0  0  0  0  0  0  0  0  0  0
   14.4400    2.9000   26.9910 C   0  0  0  0  0  0  0  0  0  0  0  0
   13.5170    2.0980   27.7980 C   0  0  0  0  0  0  0  0  0  0  0  0
   12.7110    1.1060   27.4670 N   0  0  0  0  0  0  0  0  0  0  0  0
   12.0650    0.7050   28.6160 N   0  0  0  0  0  0  0  0  0  0  0  0
   12.5160    1.4840   29.5780 C   0  0  0  0  0  0  0  0  0  0  0  0
   12.1490    1.5000   31.0140 C   0  0  0  0  0  0  0  0  0  0  0  0
   10.9290    0.6890   31.3130 C   0  0  0  0  0  0  0  0  0  0  0  0
    9.8110    1.1310   31.8570 N   0  0  0  0  0  0  0  0  0  0  0  0
    8.9870    0.0370   31.9580 C   0  0  0  0  0  0  0  0  0  0  0  0
    7.6810   -0.0620   32.4580 C   0  0  0  0  0  0  0  0  0  0  0  0
    7.0490   -1.3120   32.4490 C   0  0  0  0  0  0  0  0  0  0  0  0
    7.7060   -2.4410   31.9520 C   0  0  0  0  0  0  0  0  0  0  0  0
    9.0100   -2.3620   31.4500 C   0  0  0  0  0  0  0  0  0  0  0  0
    9.6150   -1.1040   31.4720 C   0  0  0  0  0  0  0  0  0  0  0  0
   10.8500   -0.6650   31.0730 N   0  0  0  0  0  0  0  0  0  0  0  0
   13.4430    2.3890   29.1410 O   0  0  0  0  0  0  0  0  0  0  0  0
  1  2  1  0
  2  3  2  0
  3  4  1  0
  4  5  2  0
  5  6  1  0
  6  7  2  0
  7  8  1  0
  8  9  2  0
  9 10  1  0
 10 11  2  0
 11 12  1  0
 12 13  1  0
 13 14  2  0
 14 15  1  0
 15 16  2  0
 16 17  1  0
 17 18  2  0
 18 19  1  0
 19 20  2  0
 20 21  1  0
 11 22  1  0
  7  2  1  0
 22  8  1  0
 21 13  1  0
 20 15  1  0
M  END
$$$$
