XIIWOYZDVNCFNA-GOSISDBHSA-N_6N7A_m8
     RDKit          3D

 38 42  0  0  0  0  0  0  0  0999 V2000
   12.0970  -25.9940   28.6760 C   0  0  0  0  0  0  0  0  0  0  0  0
   10.9560  -25.8800   27.6700 C   0  0  0  0  0  0  0  0  0  0  0  0
   11.3400  -26.3180   26.3200 N   0  0  0  0  0  0  0  0  0  0  0  0
   10.7590  -27.6190   25.9370 C   0  0  0  0  0  0  0  0  0  0  0  0
    9.2460  -27.5950   25.6010 C   0  0  0  0  0  0  0  0  0  0  0  0
    8.9070  -26.5930   24.5650 N   0  0  0  0  0  0  0  0  0  0  0  0
    7.4380  -26.5020   24.2940 C   0  0  2  0  0  0  0  0  0  0  0  0
    6.7740  -27.8520   23.9900 C   0  0  0  0  0  0  0  0  0  0  0  0
    7.1910  -25.6120   23.0460 C   0  0  0  0  0  0  0  0  0  0  0  0
    8.0950  -25.3600   22.2550 O   0  0  0  0  0  0  0  0  0  0  0  0
    5.8980  -25.1250   23.0090 N   0  0  0  0  0  0  0  0  0  0  0  0
    5.2960  -24.2230   22.1180 C   0  0  0  0  0  0  0  0  0  0  0  0
    4.3540  -24.7590   21.2190 C   0  0  0  0  0  0  0  0  0  0  0  0
    3.6680  -23.9620   20.3070 C   0  0  0  0  0  0  0  0  0  0  0  0
    3.9010  -22.5870   20.2600 C   0  0  0  0  0  0  0  0  0  0  0  0
    4.8390  -22.0100   21.1420 C   0  0  0  0  0  0  0  0  0  0  0  0
    5.2910  -20.6710   21.3590 C   0  0  0  0  0  0  0  0  0  0  0  0
    4.8920  -19.4410   20.6950 C   0  0  0  0  0  0  0  0  0  0  0  0
    3.7020  -18.9510   21.1060 N   0  0  0  0  0  0  0  0  0  0  0  0
    3.2280  -17.8650   20.4840 C   0  0  0  0  0  0  0  0  0  0  0  0
    1.9890  -17.4180   20.9390 N   0  0  0  0  0  0  0  0  0  0  0  0
    1.1060  -16.5320   20.4380 C   0  0  0  0  0  0  0  0  0  0  0  0
   -0.0890  -16.7540   19.8020 C   0  0  0  0  0  0  0  0  0  0  0  0
   -0.5950  -15.5200   19.5110 N   0  0  0  0  0  0  0  0  0  0  0  0
   -1.8490  -15.2340   18.8540 C   0  0  0  0  0  0  0  0  0  0  0  0
    0.1940  -14.4980   19.9040 N   0  0  0  0  0  0  0  0  0  0  0  0
    1.2290  -15.1240   20.4720 C   0  0  0  0  0  0  0  0  0  0  0  0
    2.2670  -14.4370   21.0030 O   0  0  0  0  0  0  0  0  0  0  0  0
    3.2300  -14.0070   20.0510 C   0  0  0  0  0  0  0  0  0  0  0  0
    3.8830  -17.2440   19.4920 N   0  0  0  0  0  0  0  0  0  0  0  0
    5.0790  -17.7460   19.1320 C   0  0  0  0  0  0  0  0  0  0  0  0
    5.6600  -18.8520   19.7100 C   0  0  0  0  0  0  0  0  0  0  0  0
    6.9830  -19.3610   19.2430 C   0  0  0  0  0  0  0  0  0  0  0  0
    6.1970  -20.7070   22.3960 C   0  0  0  0  0  0  0  0  0  0  0  0
    6.3270  -22.0090   22.7920 N   0  0  0  0  0  0  0  0  0  0  0  0
    5.5150  -22.8380   22.0490 C   0  0  0  0  0  0  0  0  0  0  0  0
    9.4370  -25.2700   24.9930 C   0  0  0  0  0  0  0  0  0  0  0  0
   10.9520  -25.3170   25.3040 C   0  0  0  0  0  0  0  0  0  0  0  0
  1  2  1  0
  2  3  1  0
  3  4  1  0
  4  5  1  0
  5  6  1  0
  6  7  1  0
  7  8  1  6
  7  9  1  0
  9 10  2  0
  9 11  1  0
 11 12  1  0
 12 13  2  0
 13 14  1  0
 14 15  2  0
 15 16  1  0
 16 17  1  0
 17 18  1  0
 18 19  2  0
 19 20  1  0
 20 21  1  0
 21 22  1  0
 22 23  2  0
 23 24  1  0
 24 25  1  0
 24 26  1  0
 26 27  2  0
 27 28  1  0
 28 29  1  0
 20 30  2  0
 30 31  1  0
 31 32  2  0
 32 33  1  0
 17 34  2  0
 34 35  1  0
 35 36  1  0
  6 37  1  0
 37 38  1  0
 38  3  1  0
 36 12  1  0
 36 16  2  0
 32 18  1  0
 27 22  1  0
M  END
$$$$
