XJERPGWSYRLFFC-AULYBMBSSA-N_3LXP_m9
     RDKit          3D

 23 25  0  0  0  0  0  0  0  0999 V2000
   -5.8110   28.6410  -31.4700 N   0  0  0  0  0  0  0  0  0  0  0  0
   -4.5370   29.0510  -30.8950 C   0  0  0  0  0  0  0  0  0  0  0  0
   -3.9110   27.9520  -30.0400 C   0  0  0  0  0  0  0  0  0  0  0  0
   -4.8280   26.7490  -29.8430 C   0  0  0  0  0  0  0  0  0  0  0  0
   -4.0880   25.5500  -29.4830 N   0  0  0  0  0  0  0  0  0  0  0  0
   -3.4430   25.3510  -28.2810 C   0  0  0  0  0  0  0  0  0  0  0  0
   -3.3330   26.1190  -27.1150 C   0  0  0  0  0  0  0  0  0  0  0  0
   -2.5760   25.5820  -26.0680 C   0  0  0  0  0  0  0  0  0  0  0  0
   -1.9500   24.3320  -26.1880 C   0  0  0  0  0  0  0  0  0  0  0  0
   -1.1410   23.7490  -25.0850 C   0  0  0  0  0  0  0  0  0  0  0  0
   -0.7100   22.4600  -25.2290 N   0  0  0  0  0  0  0  0  0  0  0  0
   -0.8880   24.3810  -24.0670 O   0  0  0  0  0  0  0  0  0  0  0  0
   -2.0920   23.5750  -27.3620 C   0  0  0  0  0  0  0  0  0  0  0  0
   -2.8480   24.1030  -28.4160 C   0  0  0  0  0  0  0  0  0  0  0  0
   -3.1210   23.5620  -29.6440 N   0  0  0  0  0  0  0  0  0  0  0  0
   -3.8870   24.4350  -30.2700 C   0  0  0  0  0  0  0  0  0  0  0  0
   -4.4510   24.2450  -31.6520 C   0  0  2  0  0  0  0  0  0  0  0  0
   -5.6550   25.1730  -31.8840 C   0  0  0  0  0  0  0  0  0  0  0  0
   -6.2720   24.9500  -33.2610 C   0  0  0  0  0  0  0  0  0  0  0  0
   -6.6610   23.4890  -33.4740 C   0  0  1  0  0  0  0  0  0  0  0  0
   -7.1210   23.3340  -34.8120 O   0  0  0  0  0  0  0  0  0  0  0  0
   -5.4750   22.5570  -33.2360 C   0  0  0  0  0  0  0  0  0  0  0  0
   -4.8450   22.7760  -31.8650 C   0  0  0  0  0  0  0  0  0  0  0  0
  1  2  1  0
  2  3  1  0
  3  4  1  0
  4  5  1  0
  5  6  1  0
  6  7  2  0
  7  8  1  0
  8  9  2  0
  9 10  1  0
 10 11  1  0
 10 12  2  0
  9 13  1  0
 13 14  2  0
 14 15  1  0
 15 16  2  0
 17 16  1  6
 17 18  1  0
 18 19  1  0
 19 20  1  0
 20 21  1  1
 20 22  1  0
 22 23  1  0
 16  5  1  0
 23 17  1  0
 14  6  1  0
M  END
$$$$
