XKBOWVVNDOSFQR-UHFFFAOYSA-N_6LXA_m6
     RDKit          3D

 40 43  0  0  0  0  0  0  0  0999 V2000
    3.5930    7.2410   -5.7720 C   0  0  0  0  0  0  0  0  0  0  0  0
    4.2960    7.0680   -4.4510 C   0  0  0  0  0  0  0  0  0  0  0  0
    4.6700    5.7790   -4.0290 C   0  0  0  0  0  0  0  0  0  0  0  0
    5.3290    5.5780   -2.8110 C   0  0  0  0  0  0  0  0  0  0  0  0
    5.8660    3.9820   -2.2080 S   0  0  0  0  0  0  0  0  0  0  0  0
    7.4190    3.7050   -3.0300 C   0  0  0  0  0  0  0  0  0  0  0  0
    8.3980    2.9300   -2.4100 C   0  0  0  0  0  0  0  0  0  0  0  0
    9.5980    2.7470   -3.0740 C   0  0  0  0  0  0  0  0  0  0  0  0
   10.6590    1.9980   -2.4820 C   0  0  0  0  0  0  0  0  0  0  0  0
   11.5570    1.3830   -1.9710 C   0  0  0  0  0  0  0  0  0  0  0  0
   12.6300    0.6130   -1.3310 C   0  0  0  0  0  0  0  0  0  0  0  0
   13.9470    0.9100   -1.9130 N   0  0  0  0  0  0  0  0  0  0  0  0
   14.6070    2.0450   -1.2310 C   0  0  0  0  0  0  0  0  0  0  0  0
   15.9390    2.4100   -1.9090 C   0  0  0  0  0  0  0  0  0  0  0  0
   15.7420    2.7400   -3.2900 O   0  0  0  0  0  0  0  0  0  0  0  0
   15.1480    1.6290   -3.9760 C   0  0  0  0  0  0  0  0  0  0  0  0
   13.8000    1.2460   -3.3460 C   0  0  0  0  0  0  0  0  0  0  0  0
    9.8740    3.2610   -4.2890 N   0  0  0  0  0  0  0  0  0  0  0  0
    8.8990    3.9870   -4.8720 C   0  0  0  0  0  0  0  0  0  0  0  0
    9.2250    4.4950   -6.1650 C   0  0  0  0  0  0  0  0  0  0  0  0
    9.4990    4.9100   -7.2590 C   0  0  0  0  0  0  0  0  0  0  0  0
    9.8340    5.4200   -8.5520 C   0  0  0  0  0  0  0  0  0  0  0  0
    9.9480    6.7990   -8.7490 C   0  0  0  0  0  0  0  0  0  0  0  0
   10.2860    7.3030  -10.0090 C   0  0  0  0  0  0  0  0  0  0  0  0
   10.5110    6.4330  -11.0870 C   0  0  0  0  0  0  0  0  0  0  0  0
   10.9070    6.9740  -12.4400 C   0  0  0  0  0  0  0  0  0  0  0  0
   11.3340    8.2660  -12.3750 F   0  0  0  0  0  0  0  0  0  0  0  0
   11.9220    6.2730  -13.0180 F   0  0  0  0  0  0  0  0  0  0  0  0
    9.8870    6.9620  -13.3430 F   0  0  0  0  0  0  0  0  0  0  0  0
   10.3980    5.0480  -10.8760 C   0  0  0  0  0  0  0  0  0  0  0  0
   10.0570    4.5460   -9.6160 C   0  0  0  0  0  0  0  0  0  0  0  0
    7.6650    4.2370   -4.2930 C   0  0  0  0  0  0  0  0  0  0  0  0
    5.6220    6.6960   -2.0240 C   0  0  0  0  0  0  0  0  0  0  0  0
    5.2660    7.9860   -2.4360 C   0  0  0  0  0  0  0  0  0  0  0  0
    4.6120    8.1800   -3.6530 C   0  0  0  0  0  0  0  0  0  0  0  0
    4.2360    9.3940   -4.1610 O   0  0  0  0  0  0  0  0  0  0  0  0
    5.2180   10.4230   -4.2030 C   0  0  0  0  0  0  0  0  0  0  0  0
    6.3850    9.9840   -5.0680 C   0  0  0  0  0  0  0  0  0  0  0  0
    6.3540    9.4670   -6.1740 O   0  0  0  0  0  0  0  0  0  0  0  0
    7.5750   10.2280   -4.4730 O   0  0  0  0  0  0  0  0  0  0  0  0
  1  2  1  0
  2  3  2  0
  3  4  1  0
  4  5  1  0
  5  6  1  0
  6  7  2  0
  7  8  1  0
  8  9  1  0
  9 10  3  0
 10 11  1  0
 11 12  1  0
 12 13  1  0
 13 14  1  0
 14 15  1  0
 15 16  1  0
 16 17  1  0
  8 18  2  0
 18 19  1  0
 19 20  1  0
 20 21  3  0
 21 22  1  0
 22 23  2  0
 23 24  1  0
 24 25  2  0
 25 26  1  0
 26 27  1  0
 26 28  1  0
 26 29  1  0
 25 30  1  0
 30 31  2  0
 19 32  2  0
  4 33  2  0
 33 34  1  0
 34 35  2  0
 35 36  1  0
 36 37  1  0
 37 38  1  0
 38 39  2  0
 38 40  1  0
 35  2  1  0
 32  6  1  0
 17 12  1  0
 31 22  1  0
M  END
$$$$
