XLKHHIOJLZGOJN-UHFFFAOYSA-N_6LXA_m6
     RDKit          3D

 36 38  0  0  0  0  0  0  0  0999 V2000
    7.2610   15.5730   -8.7090 C   0  0  0  0  0  0  0  0  0  0  0  0
    8.5800   15.5040   -9.4650 C   0  0  0  0  0  0  0  0  0  0  0  0
    9.7010   14.8060   -8.6920 C   0  0  0  0  0  0  0  0  0  0  0  0
    9.3040   13.4230   -8.1670 C   0  0  0  0  0  0  0  0  0  0  0  0
   10.4190   12.4430   -8.3600 N   0  0  0  0  0  0  0  0  0  0  0  0
   10.3950   11.7040   -9.6000 C   0  0  0  0  0  0  0  0  0  0  0  0
   10.3290   12.3270  -10.8480 C   0  0  0  0  0  0  0  0  0  0  0  0
   10.2590   11.5490  -12.0020 C   0  0  0  0  0  0  0  0  0  0  0  0
   10.2640   10.1570  -11.9050 C   0  0  0  0  0  0  0  0  0  0  0  0
   10.1930    9.4460  -13.0400 F   0  0  0  0  0  0  0  0  0  0  0  0
   10.3520    9.5050  -10.6670 C   0  0  0  0  0  0  0  0  0  0  0  0
   10.3670    8.0390  -10.5610 C   0  0  0  0  0  0  0  0  0  0  0  0
   10.3730    7.4020   -9.3100 C   0  0  0  0  0  0  0  0  0  0  0  0
   10.3950    6.0060   -9.2100 C   0  0  0  0  0  0  0  0  0  0  0  0
   10.4090    5.2310  -10.3650 C   0  0  0  0  0  0  0  0  0  0  0  0
   10.4270    3.5140  -10.2430 Cl  0  0  0  0  0  0  0  0  0  0  0  0
   10.4070    5.8380  -11.6170 C   0  0  0  0  0  0  0  0  0  0  0  0
   10.3860    7.2340  -11.7130 C   0  0  0  0  0  0  0  0  0  0  0  0
   10.4170   10.3060   -9.5150 C   0  0  0  0  0  0  0  0  0  0  0  0
   10.6990   11.4720   -6.9550 S   0  0  0  0  0  0  0  0  0  0  0  0
    9.4200   11.0780   -6.3970 O   0  0  0  0  0  0  0  0  0  0  0  0
   11.6710   10.4550   -7.3140 O   0  0  0  0  0  0  0  0  0  0  0  0
   11.4740   12.6130   -5.8080 C   0  0  0  0  0  0  0  0  0  0  0  0
   10.9350   12.6700   -4.5150 C   0  0  0  0  0  0  0  0  0  0  0  0
   11.4920   13.5080   -3.5550 C   0  0  0  0  0  0  0  0  0  0  0  0
   12.6020   14.2900   -3.8710 C   0  0  0  0  0  0  0  0  0  0  0  0
   13.1770   15.1460   -2.9690 O   0  0  0  0  0  0  0  0  0  0  0  0
   14.4110   14.7320   -2.3710 C   0  0  2  0  0  0  0  0  0  0  0  0
   14.2980   13.2460   -2.0520 C   0  0  0  0  0  0  0  0  0  0  0  0
   14.6290   15.5420   -1.0930 C   0  0  0  0  0  0  0  0  0  0  0  0
   15.6890   15.8610   -0.5770 O   0  0  0  0  0  0  0  0  0  0  0  0
   13.4690   15.8670   -0.4760 O   0  0  0  0  0  0  0  0  0  0  0  0
   13.1290   14.2870   -5.1810 C   0  0  0  0  0  0  0  0  0  0  0  0
   14.3070   15.1750   -5.5150 C   0  0  0  0  0  0  0  0  0  0  0  0
   12.5790   13.4210   -6.1670 C   0  0  0  0  0  0  0  0  0  0  0  0
   13.1510   13.4380   -7.5630 C   0  0  0  0  0  0  0  0  0  0  0  0
  1  2  1  0
  2  3  1  0
  3  4  1  0
  4  5  1  0
  5  6  1  0
  6  7  2  0
  7  8  1  0
  8  9  2  0
  9 10  1  0
  9 11  1  0
 11 12  1  0
 12 13  2  0
 13 14  1  0
 14 15  2  0
 15 16  1  0
 15 17  1  0
 17 18  2  0
 11 19  2  0
  5 20  1  0
 20 21  2  0
 20 22  2  0
 20 23  1  0
 23 24  2  0
 24 25  1  0
 25 26  2  0
 26 27  1  0
 27 28  1  0
 28 29  1  1
 28 30  1  0
 30 31  2  0
 30 32  1  0
 26 33  1  0
 33 34  1  0
 33 35  2  0
 35 36  1  0
 19  6  1  0
 35 23  1  0
 18 12  1  0
M  END
$$$$
