XMOANMMSPJBNRJ-UHFFFAOYSA-N_9V8H_m2
     RDKit          3D

 35 38  0  0  0  0  0  0  0  0999 V2000
   -2.3600   -5.8560  -19.8800 C   0  0  0  0  0  0  0  0  0  0  0  0
   -3.8120   -5.6150  -20.1810 C   0  0  0  0  0  0  0  0  0  0  0  0
   -4.6950   -6.7010  -20.2800 C   0  0  0  0  0  0  0  0  0  0  0  0
   -6.0540   -6.5050  -20.5670 C   0  0  0  0  0  0  0  0  0  0  0  0
   -6.9770   -7.6830  -20.7170 C   0  0  0  0  0  0  0  0  0  0  0  0
   -7.5690   -7.7070  -22.0250 N   0  0  0  0  0  0  0  0  0  0  0  0
   -8.7360   -8.3810  -22.2930 C   0  0  0  0  0  0  0  0  0  0  0  0
   -9.3710   -9.0040  -21.4470 O   0  0  0  0  0  0  0  0  0  0  0  0
   -9.1480   -8.2860  -23.7000 C   0  0  0  0  0  0  0  0  0  0  0  0
   -8.3110   -8.3360  -24.8410 C   0  0  0  0  0  0  0  0  0  0  0  0
   -9.1400   -8.1770  -25.9350 C   0  0  0  0  0  0  0  0  0  0  0  0
   -8.8110   -8.1280  -27.3550 C   0  0  0  0  0  0  0  0  0  0  0  0
   -7.5520   -8.5290  -27.8120 C   0  0  0  0  0  0  0  0  0  0  0  0
   -7.2450   -8.4840  -29.1760 C   0  0  0  0  0  0  0  0  0  0  0  0
   -8.1910   -8.0370  -30.1070 C   0  0  0  0  0  0  0  0  0  0  0  0
   -7.8580   -7.9980  -31.5220 C   0  0  0  0  0  0  0  0  0  0  0  0
   -6.8400   -8.6850  -32.2440 C   0  0  0  0  0  0  0  0  0  0  0  0
   -6.9490   -8.2820  -33.5550 C   0  0  0  0  0  0  0  0  0  0  0  0
   -7.9580   -7.3870  -33.6910 O   0  0  0  0  0  0  0  0  0  0  0  0
   -8.5030   -7.2160  -32.4590 C   0  0  0  0  0  0  0  0  0  0  0  0
   -9.4560   -7.6480  -29.6460 C   0  0  0  0  0  0  0  0  0  0  0  0
   -9.7640   -7.6960  -28.2820 C   0  0  0  0  0  0  0  0  0  0  0  0
  -10.4060   -8.0890  -25.4070 N   0  0  0  0  0  0  0  0  0  0  0  0
  -11.6560   -7.9890  -26.1280 C   0  0  0  0  0  0  0  0  0  0  0  0
  -10.4380   -8.1250  -24.0580 N   0  0  0  0  0  0  0  0  0  0  0  0
   -6.5190   -5.2020  -20.7780 C   0  0  0  0  0  0  0  0  0  0  0  0
   -5.6530   -4.1130  -20.6670 C   0  0  0  0  0  0  0  0  0  0  0  0
   -4.3130   -4.3150  -20.3380 C   0  0  0  0  0  0  0  0  0  0  0  0
   -3.4310   -3.2740  -20.2450 O   0  0  0  0  0  0  0  0  0  0  0  0
   -3.5040   -2.2440  -21.2500 C   0  0  0  0  0  0  0  0  0  0  0  0
   -2.1510   -1.5660  -21.5370 C   0  0  0  0  0  0  0  0  0  0  0  0
   -3.9430   -2.9950  -22.5200 C   0  0  0  0  0  0  0  0  0  0  0  0
   -4.6060   -1.2070  -20.9660 C   0  0  0  0  0  0  0  0  0  0  0  0
   -4.7570   -0.5420  -19.9520 O   0  0  0  0  0  0  0  0  0  0  0  0
   -5.5090   -1.0870  -21.9650 O   0  0  0  0  0  0  0  0  0  0  0  0
  1  2  1  0
  2  3  2  0
  3  4  1  0
  4  5  1  0
  5  6  1  0
  6  7  1  0
  7  8  2  0
  7  9  1  0
  9 10  1  0
 10 11  2  0
 11 12  1  0
 12 13  2  0
 13 14  1  0
 14 15  2  0
 15 16  1  0
 16 17  1  0
 17 18  2  0
 18 19  1  0
 19 20  1  0
 15 21  1  0
 21 22  2  0
 11 23  1  0
 23 24  1  0
 23 25  1  0
  4 26  2  0
 26 27  1  0
 27 28  2  0
 28 29  1  0
 29 30  1  0
 30 31  1  0
 30 32  1  0
 30 33  1  0
 33 34  2  0
 33 35  1  0
 28  2  1  0
 25  9  2  0
 22 12  1  0
 20 16  2  0
M  END
$$$$
