XMOANMMSPJBNRJ-UHFFFAOYSA-N_6LXA_m3
     RDKit          3D

 35 38  0  0  0  0  0  0  0  0999 V2000
   13.2950    8.4710  -13.1260 C   0  0  0  0  0  0  0  0  0  0  0  0
   12.1310    7.6030  -12.7390 C   0  0  0  0  0  0  0  0  0  0  0  0
   12.3550    6.3920  -12.0670 C   0  0  0  0  0  0  0  0  0  0  0  0
   11.2870    5.5600  -11.7010 C   0  0  0  0  0  0  0  0  0  0  0  0
   11.5480    4.2420  -11.0250 C   0  0  0  0  0  0  0  0  0  0  0  0
   10.7080    4.0820   -9.8710 N   0  0  0  0  0  0  0  0  0  0  0  0
   10.6510    5.0170   -8.8660 C   0  0  0  0  0  0  0  0  0  0  0  0
   11.2960    6.0620   -8.8720 O   0  0  0  0  0  0  0  0  0  0  0  0
    9.7410    4.6390   -7.7760 C   0  0  0  0  0  0  0  0  0  0  0  0
    8.6590    5.3960   -7.2640 C   0  0  0  0  0  0  0  0  0  0  0  0
    8.1200    4.6510   -6.2340 C   0  0  0  0  0  0  0  0  0  0  0  0
    7.0040    4.9560   -5.3470 C   0  0  0  0  0  0  0  0  0  0  0  0
    7.0390    4.5820   -4.0000 C   0  0  0  0  0  0  0  0  0  0  0  0
    5.9670    4.8820   -3.1530 C   0  0  0  0  0  0  0  0  0  0  0  0
    4.8420    5.5610   -3.6360 C   0  0  0  0  0  0  0  0  0  0  0  0
    3.7360    5.8680   -2.7420 C   0  0  0  0  0  0  0  0  0  0  0  0
    2.7590    5.0090   -2.1640 C   0  0  0  0  0  0  0  0  0  0  0  0
    1.9330    5.8080   -1.4060 C   0  0  0  0  0  0  0  0  0  0  0  0
    2.3280    7.1030   -1.4850 O   0  0  0  0  0  0  0  0  0  0  0  0
    3.4170    7.1350   -2.2950 C   0  0  0  0  0  0  0  0  0  0  0  0
    4.8160    5.9450   -4.9830 C   0  0  0  0  0  0  0  0  0  0  0  0
    5.8900    5.6480   -5.8300 C   0  0  0  0  0  0  0  0  0  0  0  0
    8.8590    3.4920   -6.2140 N   0  0  0  0  0  0  0  0  0  0  0  0
    8.6600    2.3350   -5.3690 C   0  0  0  0  0  0  0  0  0  0  0  0
    9.8620    3.4690   -7.1160 N   0  0  0  0  0  0  0  0  0  0  0  0
    9.9840    5.9450  -12.0350 C   0  0  0  0  0  0  0  0  0  0  0  0
    9.7480    7.1550  -12.6900 C   0  0  0  0  0  0  0  0  0  0  0  0
   10.8120    7.9960  -13.0110 C   0  0  0  0  0  0  0  0  0  0  0  0
   10.6210    9.1770  -13.6730 O   0  0  0  0  0  0  0  0  0  0  0  0
   10.0700   10.2800  -12.9280 C   0  0  0  0  0  0  0  0  0  0  0  0
   10.6120   11.6530  -13.3670 C   0  0  0  0  0  0  0  0  0  0  0  0
    8.5660   10.2320  -13.2520 C   0  0  0  0  0  0  0  0  0  0  0  0
   10.1840   10.0900  -11.4050 C   0  0  0  0  0  0  0  0  0  0  0  0
    9.3860    9.5360  -10.6630 O   0  0  0  0  0  0  0  0  0  0  0  0
   11.2890   10.6560  -10.8680 O   0  0  0  0  0  0  0  0  0  0  0  0
  1  2  1  0
  2  3  2  0
  3  4  1  0
  4  5  1  0
  5  6  1  0
  6  7  1  0
  7  8  2  0
  7  9  1  0
  9 10  1  0
 10 11  2  0
 11 12  1  0
 12 13  2  0
 13 14  1  0
 14 15  2  0
 15 16  1  0
 16 17  1  0
 17 18  2  0
 18 19  1  0
 19 20  1  0
 15 21  1  0
 21 22  2  0
 11 23  1  0
 23 24  1  0
 23 25  1  0
  4 26  2  0
 26 27  1  0
 27 28  2  0
 28 29  1  0
 29 30  1  0
 30 31  1  0
 30 32  1  0
 30 33  1  0
 33 34  2  0
 33 35  1  0
 28  2  1  0
 25  9  2  0
 22 12  1  0
 20 16  2  0
M  END
$$$$
