XNQKRHGPWPVZTM-SFHVURJKSA-N_5U3Q_m2
     RDKit          3D

 26 28  0  0  0  0  0  0  0  0999 V2000
   43.0390  -41.2950   97.3590 C   0  0  0  0  0  0  0  0  0  0  0  0
   43.0820  -40.7980   98.7740 C   0  0  0  0  0  0  0  0  0  0  0  0
   44.0080  -41.3180   99.6820 C   0  0  0  0  0  0  0  0  0  0  0  0
   44.0690  -40.8330  100.9920 C   0  0  0  0  0  0  0  0  0  0  0  0
   43.2120  -39.8110  101.4110 C   0  0  0  0  0  0  0  0  0  0  0  0
   43.1920  -39.2690  102.6690 O   0  0  0  0  0  0  0  0  0  0  0  0
   42.9230  -40.1440  103.7620 C   0  0  0  0  0  0  0  0  0  0  0  0
   41.4840  -39.9330  104.2170 C   0  0  0  0  0  0  0  0  0  0  0  0
   41.4040  -39.1480  105.5260 C   0  0  0  0  0  0  0  0  0  0  0  0
   41.5610  -40.0250  106.6420 O   0  0  0  0  0  0  0  0  0  0  0  0
   42.7250  -39.9830  107.3590 C   0  0  0  0  0  0  0  0  0  0  0  0
   43.1860  -38.9030  108.1280 C   0  0  0  0  0  0  0  0  0  0  0  0
   44.4030  -38.9810  108.8200 C   0  0  0  0  0  0  0  0  0  0  0  0
   45.1580  -40.1390  108.7190 C   0  0  0  0  0  0  0  0  0  0  0  0
   44.7000  -41.2140  107.9520 C   0  0  0  0  0  0  0  0  0  0  0  0
   43.4920  -41.1500  107.2750 C   0  0  0  0  0  0  0  0  0  0  0  0
   45.6420  -42.3730  108.0290 C   0  0  0  0  0  0  0  0  0  0  0  0
   46.9190  -41.6780  108.5170 C   0  0  0  0  0  0  0  0  0  0  0  0
   46.4640  -40.4840  109.3910 C   0  0  1  0  0  0  0  0  0  0  0  0
   47.4810  -39.3440  109.4180 C   0  0  0  0  0  0  0  0  0  0  0  0
   48.2710  -39.2700  108.1410 C   0  0  0  0  0  0  0  0  0  0  0  0
   47.9050  -38.8350  107.0630 O   0  0  0  0  0  0  0  0  0  0  0  0
   49.5080  -39.7880  108.2850 O   0  0  0  0  0  0  0  0  0  0  0  0
   42.2840  -39.2730  100.5030 C   0  0  0  0  0  0  0  0  0  0  0  0
   41.3510  -38.1700  100.9210 C   0  0  0  0  0  0  0  0  0  0  0  0
   42.2330  -39.7670   99.1890 C   0  0  0  0  0  0  0  0  0  0  0  0
  1  2  1  0
  2  3  2  0
  3  4  1  0
  4  5  2  0
  5  6  1  0
  6  7  1  0
  7  8  1  0
  8  9  1  0
  9 10  1  0
 10 11  1  0
 11 12  2  0
 12 13  1  0
 13 14  2  0
 14 15  1  0
 15 16  2  0
 15 17  1  0
 17 18  1  0
 18 19  1  0
 19 20  1  6
 20 21  1  0
 21 22  2  0
 21 23  1  0
  5 24  1  0
 24 25  1  0
 24 26  2  0
 26  2  1  0
 16 11  1  0
 19 14  1  0
M  END
$$$$
