XPMQWMAEFFQIRZ-UHFFFAOYSA-N_4JT6_m3
     RDKit          3D

 26 29  0  0  0  0  0  0  0  0999 V2000
   45.0110   -3.8950  -46.5000 N   0  0  0  0  0  0  0  0  0  0  0  0
   45.7650   -3.4820  -47.2800 C   0  0  0  0  0  0  0  0  0  0  0  0
   46.7020   -2.9710  -48.2390 C   0  0  0  0  0  0  0  0  0  0  0  0
   46.6360   -3.2280  -49.6020 C   0  0  0  0  0  0  0  0  0  0  0  0
   45.7770   -4.0250  -50.3170 N   0  0  0  0  0  0  0  0  0  0  0  0
   44.9500   -3.5090  -51.4230 C   0  0  0  0  0  0  0  0  0  0  0  0
   43.6270   -4.2870  -51.5120 C   0  0  0  0  0  0  0  0  0  0  0  0
   43.8480   -5.7020  -51.6140 O   0  0  0  0  0  0  0  0  0  0  0  0
   44.5580   -6.1730  -50.4590 C   0  0  0  0  0  0  0  0  0  0  0  0
   45.9290   -5.4940  -50.3280 C   0  0  0  0  0  0  0  0  0  0  0  0
   47.9130   -2.3860  -50.4050 S   0  0  0  0  0  0  0  0  0  0  0  0
   48.5440   -1.7110  -48.9660 C   0  0  0  0  0  0  0  0  0  0  0  0
   49.7020   -0.8590  -49.0070 C   0  0  0  0  0  0  0  0  0  0  0  0
   50.8670   -1.0970  -48.4410 N   0  0  0  0  0  0  0  0  0  0  0  0
   51.6130   -0.0010  -48.7730 C   0  0  0  0  0  0  0  0  0  0  0  0
   50.9810    0.9140  -49.5090 N   0  0  0  0  0  0  0  0  0  0  0  0
   49.7730    0.3460  -49.6510 N   0  0  0  0  0  0  0  0  0  0  0  0
   47.7930   -2.1050  -47.8690 C   0  0  0  0  0  0  0  0  0  0  0  0
   48.1180   -1.6830  -46.5070 C   0  0  0  0  0  0  0  0  0  0  0  0
   47.5620   -0.4890  -46.0220 C   0  0  0  0  0  0  0  0  0  0  0  0
   47.8470   -0.0570  -44.7250 C   0  0  0  0  0  0  0  0  0  0  0  0
   48.6820   -0.8180  -43.9090 C   0  0  0  0  0  0  0  0  0  0  0  0
   49.0320   -0.2810  -42.3120 Cl  0  0  0  0  0  0  0  0  0  0  0  0
   49.2360   -2.0100  -44.3730 C   0  0  0  0  0  0  0  0  0  0  0  0
   48.9530   -2.4440  -45.6700 C   0  0  0  0  0  0  0  0  0  0  0  0
   49.6510   -3.9390  -46.1920 Cl  0  0  0  0  0  0  0  0  0  0  0  0
  1  2  3  0
  2  3  1  0
  3  4  2  0
  4  5  1  0
  5  6  1  0
  6  7  1  0
  7  8  1  0
  8  9  1  0
  9 10  1  0
  4 11  1  0
 11 12  1  0
 12 13  1  0
 13 14  2  0
 14 15  1  0
 15 16  2  0
 16 17  1  0
 12 18  2  0
 18 19  1  0
 19 20  2  0
 20 21  1  0
 21 22  2  0
 22 23  1  0
 22 24  1  0
 24 25  2  0
 25 26  1  0
 18  3  1  0
 25 19  1  0
 10  5  1  0
 17 13  1  0
M  END
$$$$
