XPMQWMAEFFQIRZ-UHFFFAOYSA-N_4JT6_m2
     RDKit          3D

 26 29  0  0  0  0  0  0  0  0999 V2000
   48.8770   -2.2710  -46.3900 N   0  0  0  0  0  0  0  0  0  0  0  0
   49.8100   -1.5790  -46.3780 C   0  0  0  0  0  0  0  0  0  0  0  0
   50.9640   -0.7280  -46.3580 C   0  0  0  0  0  0  0  0  0  0  0  0
   51.4380   -0.0350  -47.4640 C   0  0  0  0  0  0  0  0  0  0  0  0
   51.0070   -0.0380  -48.7680 N   0  0  0  0  0  0  0  0  0  0  0  0
   49.5790   -0.0400  -49.1320 C   0  0  0  0  0  0  0  0  0  0  0  0
   49.3630   -0.7920  -50.4560 C   0  0  0  0  0  0  0  0  0  0  0  0
   50.1900   -0.2690  -51.5060 O   0  0  0  0  0  0  0  0  0  0  0  0
   51.5750   -0.3950  -51.1490 C   0  0  0  0  0  0  0  0  0  0  0  0
   51.8980    0.3860  -49.8670 C   0  0  0  0  0  0  0  0  0  0  0  0
   52.8080    0.9110  -47.0040 S   0  0  0  0  0  0  0  0  0  0  0  0
   52.7770    0.3920  -45.3740 C   0  0  0  0  0  0  0  0  0  0  0  0
   53.7560    0.8750  -44.4370 C   0  0  0  0  0  0  0  0  0  0  0  0
   55.0500    0.6310  -44.4640 N   0  0  0  0  0  0  0  0  0  0  0  0
   55.5250    1.3080  -43.3760 C   0  0  0  0  0  0  0  0  0  0  0  0
   54.6030    1.9580  -42.6650 N   0  0  0  0  0  0  0  0  0  0  0  0
   53.4890    1.6740  -43.3590 N   0  0  0  0  0  0  0  0  0  0  0  0
   51.7280   -0.4880  -45.1590 C   0  0  0  0  0  0  0  0  0  0  0  0
   51.4740   -1.0970  -43.8540 C   0  0  0  0  0  0  0  0  0  0  0  0
   52.3100   -2.1380  -43.4230 C   0  0  0  0  0  0  0  0  0  0  0  0
   52.0990   -2.7400  -42.1800 C   0  0  0  0  0  0  0  0  0  0  0  0
   51.0570   -2.3010  -41.3660 C   0  0  0  0  0  0  0  0  0  0  0  0
   50.8000   -3.0470  -39.8370 Cl  0  0  0  0  0  0  0  0  0  0  0  0
   50.2220   -1.2640  -41.7760 C   0  0  0  0  0  0  0  0  0  0  0  0
   50.4310   -0.6610  -43.0190 C   0  0  0  0  0  0  0  0  0  0  0  0
   49.3770    0.6350  -43.4740 Cl  0  0  0  0  0  0  0  0  0  0  0  0
  1  2  3  0
  2  3  1  0
  3  4  2  0
  4  5  1  0
  5  6  1  0
  6  7  1  0
  7  8  1  0
  8  9  1  0
  9 10  1  0
  4 11  1  0
 11 12  1  0
 12 13  1  0
 13 14  2  0
 14 15  1  0
 15 16  2  0
 16 17  1  0
 12 18  2  0
 18 19  1  0
 19 20  2  0
 20 21  1  0
 21 22  2  0
 22 23  1  0
 22 24  1  0
 24 25  2  0
 25 26  1  0
 18  3  1  0
 25 19  1  0
 10  5  1  0
 17 13  1  0
M  END
$$$$
