XSUUNVIUYATSNU-BETUJISGSA-N_3LXP_m2
     RDKit          3D

 26 30  0  0  0  0  0  0  0  0999 V2000
   -4.2630   21.5900  -30.4650 C   0  0  0  0  0  0  0  0  0  0  0  0
   -4.1580   23.0420  -30.5640 N   0  0  0  0  0  0  0  0  0  0  0  0
   -4.8800   23.6500  -31.6140 C   0  0  0  0  0  0  0  0  0  0  0  0
   -5.3580   22.8360  -32.6010 N   0  0  0  0  0  0  0  0  0  0  0  0
   -6.0710   23.3560  -33.6160 C   0  0  0  0  0  0  0  0  0  0  0  0
   -6.3870   24.6410  -33.8250 N   0  0  0  0  0  0  0  0  0  0  0  0
   -5.8870   25.4240  -32.8610 C   0  0  0  0  0  0  0  0  0  0  0  0
   -6.0440   26.7830  -32.8300 N   0  0  0  0  0  0  0  0  0  0  0  0
   -5.4070   27.2990  -31.7320 C   0  0  0  0  0  0  0  0  0  0  0  0
   -4.8390   26.2440  -31.0490 C   0  0  0  0  0  0  0  0  0  0  0  0
   -5.1460   25.0350  -31.7520 C   0  0  0  0  0  0  0  0  0  0  0  0
   -3.0400   23.6800  -29.9110 C   0  0  2  0  0  0  0  0  0  0  0  0
   -2.0920   22.6810  -29.1910 C   0  0  0  0  0  0  0  0  0  0  0  0
   -1.9580   23.7320  -28.0590 C   0  0  2  0  0  0  0  0  0  0  0  0
   -1.8810   23.2370  -26.6270 C   0  0  0  0  0  0  0  0  0  0  0  0
   -1.3890   24.5650  -25.5350 S   0  0  0  0  0  0  0  0  0  0  0  0
   -2.5680   25.1370  -24.9220 O   0  0  0  0  0  0  0  0  0  0  0  0
   -0.4070   25.3930  -26.2030 O   0  0  0  0  0  0  0  0  0  0  0  0
   -0.5760   23.6930  -24.3350 N   0  0  0  0  0  0  0  0  0  0  0  0
   -0.3480   22.2030  -24.3420 C   0  0  0  0  0  0  0  0  0  0  0  0
    0.9720   22.4380  -23.6800 C   0  0  0  0  0  0  0  0  0  0  0  0
    1.1790   22.0150  -22.2650 C   0  0  0  0  0  0  0  0  0  0  0  0
    2.3890   21.2950  -22.6530 O   0  0  0  0  0  0  0  0  0  0  0  0
    2.1760   21.6500  -24.0520 C   0  0  0  0  0  0  0  0  0  0  0  0
    0.8820   23.8960  -24.0080 C   0  0  0  0  0  0  0  0  0  0  0  0
   -3.3540   24.2420  -28.4970 C   0  0  0  0  0  0  0  0  0  0  0  0
  1  2  1  0
  2  3  1  0
  3  4  2  0
  4  5  1  0
  5  6  2  0
  6  7  1  0
  7  8  1  0
  8  9  1  0
  9 10  2  0
 10 11  1  0
 12  2  1  6
 12 13  1  0
 13 14  1  0
 14 15  1  6
 15 16  1  0
 16 17  2  0
 16 18  2  0
 16 19  1  0
 19 20  1  0
 20 21  1  0
 21 22  1  0
 22 23  1  0
 23 24  1  0
 21 25  1  0
 14 26  1  0
 11  3  1  0
 26 12  1  0
 11  7  2  0
 25 19  1  0
 24 21  1  0
M  END
$$$$
