XWDWDQGJOOSFCU-UHFFFAOYSA-N_5U3Q_m4
     RDKit          3D

 39 43  0  0  0  0  0  0  0  0999 V2000
   49.4770  -36.5720  107.4920 C   0  0  0  0  0  0  0  0  0  0  0  0
   49.7710  -38.0140  107.1000 C   0  0  0  0  0  0  0  0  0  0  0  0
   49.1290  -39.0220  108.0550 C   0  0  0  0  0  0  0  0  0  0  0  0
   47.9280  -39.5800  107.5230 O   0  0  0  0  0  0  0  0  0  0  0  0
   46.7440  -39.3860  108.1850 C   0  0  0  0  0  0  0  0  0  0  0  0
   46.3040  -38.1690  108.7110 C   0  0  0  0  0  0  0  0  0  0  0  0
   45.0400  -38.0730  109.2940 C   0  0  0  0  0  0  0  0  0  0  0  0
   44.6140  -36.8740  109.7180 F   0  0  0  0  0  0  0  0  0  0  0  0
   44.2080  -39.1820  109.4100 C   0  0  0  0  0  0  0  0  0  0  0  0
   42.7790  -39.0620  109.8830 C   0  0  0  0  0  0  0  0  0  0  0  0
   41.7930  -38.7670  108.7310 C   0  0  2  0  0  0  0  0  0  0  0  0
   42.1310  -39.5290  107.4400 C   0  0  0  0  0  0  0  0  0  0  0  0
   40.9410  -39.6980  106.5080 C   0  0  0  0  0  0  0  0  0  0  0  0
   41.7180  -37.2830  108.4200 C   0  0  0  0  0  0  0  0  0  0  0  0
   42.4180  -36.6940  107.6110 O   0  0  0  0  0  0  0  0  0  0  0  0
   40.7520  -36.6430  109.1090 O   0  0  0  0  0  0  0  0  0  0  0  0
   44.6860  -40.4140  108.9570 C   0  0  0  0  0  0  0  0  0  0  0  0
   45.9220  -40.5210  108.3010 C   0  0  0  0  0  0  0  0  0  0  0  0
   46.2470  -41.8280  107.6200 C   0  0  0  0  0  0  0  0  0  0  0  0
   45.9650  -41.7490  106.2010 N   0  0  0  0  0  0  0  0  0  0  0  0
   44.8450  -42.2900  105.6100 C   0  0  0  0  0  0  0  0  0  0  0  0
   44.0060  -42.9520  106.2190 O   0  0  0  0  0  0  0  0  0  0  0  0
   44.6510  -42.0190  104.1570 C   0  0  0  0  0  0  0  0  0  0  0  0
   45.6490  -42.4130  103.2610 C   0  0  0  0  0  0  0  0  0  0  0  0
   45.5090  -42.1770  101.8870 C   0  0  0  0  0  0  0  0  0  0  0  0
   44.3710  -41.5370  101.3590 C   0  0  0  0  0  0  0  0  0  0  0  0
   44.2520  -41.2960   99.8460 C   0  0  2  0  0  0  0  0  0  0  0  0
   42.7540  -41.1500   99.4430 C   0  0  0  0  0  0  0  0  0  0  0  0
   42.6020  -40.9640   97.9240 C   0  0  1  0  0  0  0  0  0  0  0  0
   43.3450  -39.6920   97.4880 C   0  0  0  0  0  0  0  0  0  0  0  0
   44.8350  -39.8160   97.8360 C   0  0  2  0  0  0  0  0  0  0  0  0
   45.4320  -41.0290   97.1110 C   0  0  0  0  0  0  0  0  0  0  0  0
   44.7010  -42.3070   97.5430 C   0  0  2  0  0  0  0  0  0  0  0  0
   43.2070  -42.1780   97.2000 C   0  0  0  0  0  0  0  0  0  0  0  0
   44.8590  -42.4970   99.0620 C   0  0  0  0  0  0  0  0  0  0  0  0
   44.9860  -40.0090   99.3550 C   0  0  0  0  0  0  0  0  0  0  0  0
   43.3790  -41.1480  102.2720 C   0  0  0  0  0  0  0  0  0  0  0  0
   43.5200  -41.3860  103.6430 C   0  0  0  0  0  0  0  0  0  0  0  0
   42.5250  -40.9840  104.4500 F   0  0  0  0  0  0  0  0  0  0  0  0
  1  2  1  0
  2  3  1  0
  3  4  1  0
  4  5  1  0
  5  6  2  0
  6  7  1  0
  7  8  1  0
  7  9  2  0
  9 10  1  0
 11 10  1  1
 11 12  1  0
 12 13  1  0
 11 14  1  0
 14 15  2  0
 14 16  1  0
  9 17  1  0
 17 18  2  0
 18 19  1  0
 19 20  1  0
 20 21  1  0
 21 22  2  0
 21 23  1  0
 23 24  2  0
 24 25  1  0
 25 26  2  0
 27 26  1  6
 27 28  1  0
 29 28  1  6
 29 30  1  0
 31 30  1  6
 31 32  1  0
 33 32  1  6
 33 34  1  0
 33 35  1  0
 31 36  1  0
 26 37  1  0
 37 38  2  0
 38 39  1  0
 18  5  1  0
 38 23  1  0
 35 27  1  0
 36 27  1  0
 34 29  1  0
M  END
$$$$
