XWDWDQGJOOSFCU-UHFFFAOYSA-N_6LXA_m9
     RDKit          3D

 39 43  0  0  0  0  0  0  0  0999 V2000
   11.9860   11.7520   -7.3010 C   0  0  0  0  0  0  0  0  0  0  0  0
   10.9480   11.1510   -6.3640 C   0  0  0  0  0  0  0  0  0  0  0  0
    9.7490   10.5700   -7.1140 C   0  0  0  0  0  0  0  0  0  0  0  0
   10.0210    9.2750   -7.6480 O   0  0  0  0  0  0  0  0  0  0  0  0
   10.0770    9.1030   -9.0060 C   0  0  0  0  0  0  0  0  0  0  0  0
   10.1190   10.1340   -9.9490 C   0  0  0  0  0  0  0  0  0  0  0  0
   10.2580    9.8380  -11.3050 C   0  0  0  0  0  0  0  0  0  0  0  0
   10.3760   10.8490  -12.1780 F   0  0  0  0  0  0  0  0  0  0  0  0
   10.3100    8.5240  -11.7600 C   0  0  0  0  0  0  0  0  0  0  0  0
   10.6270    8.1890  -13.1980 C   0  0  0  0  0  0  0  0  0  0  0  0
   12.0490    7.6110  -13.3760 C   0  0  2  0  0  0  0  0  0  0  0  0
   12.4460    6.6360  -12.2570 C   0  0  0  0  0  0  0  0  0  0  0  0
   11.8600    5.2430  -12.4320 C   0  0  0  0  0  0  0  0  0  0  0  0
   13.0950    8.7080  -13.4660 C   0  0  0  0  0  0  0  0  0  0  0  0
   12.8610    9.8990  -13.5870 O   0  0  0  0  0  0  0  0  0  0  0  0
   14.3580    8.2470  -13.3600 O   0  0  0  0  0  0  0  0  0  0  0  0
   10.1840    7.4970  -10.8220 C   0  0  0  0  0  0  0  0  0  0  0  0
   10.1180    7.7690   -9.4470 C   0  0  0  0  0  0  0  0  0  0  0  0
   10.2420    6.6050   -8.4920 C   0  0  0  0  0  0  0  0  0  0  0  0
    9.1370    6.5940   -7.5550 N   0  0  0  0  0  0  0  0  0  0  0  0
    8.4540    5.4570   -7.1870 C   0  0  0  0  0  0  0  0  0  0  0  0
    8.6730    4.3460   -7.6680 O   0  0  0  0  0  0  0  0  0  0  0  0
    7.4190    5.6050   -6.1240 C   0  0  0  0  0  0  0  0  0  0  0  0
    7.3880    4.6740   -5.0820 C   0  0  0  0  0  0  0  0  0  0  0  0
    6.4320    4.7750   -4.0630 C   0  0  0  0  0  0  0  0  0  0  0  0
    5.4710    5.8040   -4.0500 C   0  0  0  0  0  0  0  0  0  0  0  0
    4.4370    5.8840   -2.9150 C   0  0  2  0  0  0  0  0  0  0  0  0
    4.2360    7.3650   -2.4760 C   0  0  0  0  0  0  0  0  0  0  0  0
    3.2480    7.4670   -1.3020 C   0  0  1  0  0  0  0  0  0  0  0  0
    1.8850    6.9010   -1.7300 C   0  0  0  0  0  0  0  0  0  0  0  0
    2.0390    5.4280   -2.1340 C   0  0  2  0  0  0  0  0  0  0  0  0
    2.5750    4.6220   -0.9430 C   0  0  0  0  0  0  0  0  0  0  0  0
    3.9390    5.1760   -0.5100 C   0  0  2  0  0  0  0  0  0  0  0  0
    3.7850    6.6530   -0.1130 C   0  0  0  0  0  0  0  0  0  0  0  0
    4.9300    5.0670   -1.6830 C   0  0  0  0  0  0  0  0  0  0  0  0
    3.0330    5.3260   -3.3040 C   0  0  0  0  0  0  0  0  0  0  0  0
    5.5160    6.7310   -5.1030 C   0  0  0  0  0  0  0  0  0  0  0  0
    6.4730    6.6290   -6.1190 C   0  0  0  0  0  0  0  0  0  0  0  0
    6.4490    7.5560   -7.0900 F   0  0  0  0  0  0  0  0  0  0  0  0
  1  2  1  0
  2  3  1  0
  3  4  1  0
  4  5  1  0
  5  6  2  0
  6  7  1  0
  7  8  1  0
  7  9  2  0
  9 10  1  0
 11 10  1  1
 11 12  1  0
 12 13  1  0
 11 14  1  0
 14 15  2  0
 14 16  1  0
  9 17  1  0
 17 18  2  0
 18 19  1  0
 19 20  1  0
 20 21  1  0
 21 22  2  0
 21 23  1  0
 23 24  2  0
 24 25  1  0
 25 26  2  0
 27 26  1  1
 27 28  1  0
 29 28  1  1
 29 30  1  0
 31 30  1  6
 31 32  1  0
 33 32  1  1
 33 34  1  0
 33 35  1  0
 31 36  1  0
 26 37  1  0
 37 38  2  0
 38 39  1  0
 18  5  1  0
 38 23  1  0
 35 27  1  0
 36 27  1  0
 34 29  1  0
M  END
$$$$
