XWDWDQGJOOSFCU-UHFFFAOYSA-N_5U3Q_m8
     RDKit          3D

 39 43  0  0  0  0  0  0  0  0999 V2000
   37.7140  -34.9980  100.1100 C   0  0  0  0  0  0  0  0  0  0  0  0
   37.6010  -35.6170  101.4960 C   0  0  0  0  0  0  0  0  0  0  0  0
   36.2400  -36.2730  101.7350 C   0  0  0  0  0  0  0  0  0  0  0  0
   36.3090  -37.3270  102.6940 O   0  0  0  0  0  0  0  0  0  0  0  0
   36.3830  -37.0220  104.0270 C   0  0  0  0  0  0  0  0  0  0  0  0
   35.8320  -35.8870  104.6270 C   0  0  0  0  0  0  0  0  0  0  0  0
   35.9000  -35.7220  106.0110 C   0  0  0  0  0  0  0  0  0  0  0  0
   35.2920  -34.6630  106.5650 F   0  0  0  0  0  0  0  0  0  0  0  0
   36.5520  -36.6470  106.8210 C   0  0  0  0  0  0  0  0  0  0  0  0
   36.4900  -36.5710  108.3280 C   0  0  0  0  0  0  0  0  0  0  0  0
   36.9850  -37.8660  109.0100 C   0  0  2  0  0  0  0  0  0  0  0  0
   36.0280  -38.3760  110.0980 C   0  0  0  0  0  0  0  0  0  0  0  0
   35.2950  -39.6520  109.7090 C   0  0  0  0  0  0  0  0  0  0  0  0
   38.3670  -37.6900  109.6160 C   0  0  0  0  0  0  0  0  0  0  0  0
   39.3570  -37.3010  109.0160 O   0  0  0  0  0  0  0  0  0  0  0  0
   38.4100  -37.9740  110.9330 O   0  0  0  0  0  0  0  0  0  0  0  0
   37.1720  -37.7370  106.2080 C   0  0  0  0  0  0  0  0  0  0  0  0
   37.0550  -37.9630  104.8280 C   0  0  0  0  0  0  0  0  0  0  0  0
   37.5340  -39.2890  104.2880 C   0  0  0  0  0  0  0  0  0  0  0  0
   38.8630  -39.5900  104.7800 N   0  0  0  0  0  0  0  0  0  0  0  0
   40.0220  -39.1960  104.1490 C   0  0  0  0  0  0  0  0  0  0  0  0
   40.0430  -38.6050  103.0710 O   0  0  0  0  0  0  0  0  0  0  0  0
   41.3050  -39.4900  104.8510 C   0  0  0  0  0  0  0  0  0  0  0  0
   41.4960  -38.9850  106.1400 C   0  0  0  0  0  0  0  0  0  0  0  0
   42.6860  -39.2360  106.8350 C   0  0  0  0  0  0  0  0  0  0  0  0
   43.7280  -39.9950  106.2680 C   0  0  0  0  0  0  0  0  0  0  0  0
   45.0200  -40.2510  107.0610 C   0  0  2  0  0  0  0  0  0  0  0  0
   45.9410  -41.2360  106.2820 C   0  0  0  0  0  0  0  0  0  0  0  0
   47.2170  -41.5530  107.0800 C   0  0  1  0  0  0  0  0  0  0  0  0
   48.0000  -40.2550  107.3300 C   0  0  0  0  0  0  0  0  0  0  0  0
   47.1340  -39.2730  108.1310 C   0  0  2  0  0  0  0  0  0  0  0  0
   46.7510  -39.9050  109.4760 C   0  0  0  0  0  0  0  0  0  0  0  0
   45.9630  -41.2000  109.2380 C   0  0  2  0  0  0  0  0  0  0  0  0
   46.8290  -42.1800  108.4300 C   0  0  0  0  0  0  0  0  0  0  0  0
   44.6830  -40.8810  108.4450 C   0  0  0  0  0  0  0  0  0  0  0  0
   45.8540  -38.9610  107.3350 C   0  0  0  0  0  0  0  0  0  0  0  0
   43.5200  -40.4940  104.9730 C   0  0  0  0  0  0  0  0  0  0  0  0
   42.3290  -40.2440  104.2820 C   0  0  0  0  0  0  0  0  0  0  0  0
   42.2080  -40.7580  103.0470 F   0  0  0  0  0  0  0  0  0  0  0  0
  1  2  1  0
  2  3  1  0
  3  4  1  0
  4  5  1  0
  5  6  2  0
  6  7  1  0
  7  8  1  0
  7  9  2  0
  9 10  1  0
 11 10  1  1
 11 12  1  0
 12 13  1  0
 11 14  1  0
 14 15  2  0
 14 16  1  0
  9 17  1  0
 17 18  2  0
 18 19  1  0
 19 20  1  0
 20 21  1  0
 21 22  2  0
 21 23  1  0
 23 24  2  0
 24 25  1  0
 25 26  2  0
 27 26  1  1
 27 28  1  0
 29 28  1  1
 29 30  1  0
 31 30  1  1
 31 32  1  0
 33 32  1  1
 33 34  1  0
 33 35  1  0
 31 36  1  0
 26 37  1  0
 37 38  2  0
 38 39  1  0
 18  5  1  0
 38 23  1  0
 35 27  1  0
 36 27  1  0
 34 29  1  0
M  END
$$$$
