XWEGZOWJKZVIPT-HXUWFJFHSA-N_6N7A_m8
     RDKit          3D

 32 36  0  0  0  0  0  0  0  0999 V2000
    9.9530  -27.9910   25.9640 C   0  0  0  0  0  0  0  0  0  0  0  0
    8.8100  -27.1250   25.4450 C   0  0  0  0  0  0  0  0  0  0  0  0
    9.2570  -25.7030   25.0530 C   0  0  0  0  0  0  0  0  0  0  0  0
   10.7870  -25.5780   24.9060 C   0  0  0  0  0  0  0  0  0  0  0  0
   11.4210  -24.6370   25.9210 C   0  0  0  0  0  0  0  0  0  0  0  0
    8.6010  -25.2450   23.8240 N   0  0  0  0  0  0  0  0  0  0  0  0
    7.2950  -24.8670   23.6670 C   0  0  0  0  0  0  0  0  0  0  0  0
    7.1370  -24.5130   22.3410 C   0  0  0  0  0  0  0  0  0  0  0  0
    5.9670  -24.0130   21.6490 C   0  0  0  0  0  0  0  0  0  0  0  0
    6.0530  -22.8240   21.1200 N   0  0  0  0  0  0  0  0  0  0  0  0
    4.9460  -22.2930   20.4790 C   0  0  0  0  0  0  0  0  0  0  0  0
    5.1510  -20.9770   19.9510 C   0  0  0  0  0  0  0  0  0  0  0  0
    6.3760  -20.3340   19.6580 C   0  0  0  0  0  0  0  0  0  0  0  0
    6.2090  -19.1000   19.1720 N   0  0  0  0  0  0  0  0  0  0  0  0
    4.8740  -18.9460   19.1550 N   0  0  0  0  0  0  0  0  0  0  0  0
    4.2950  -17.7030   18.6800 C   0  0  0  0  0  0  0  0  0  0  0  0
    3.5810  -16.9470   19.8060 C   0  0  0  0  0  0  0  0  0  0  0  0
    2.2000  -16.5710   19.4600 N   0  0  0  0  0  0  0  0  0  0  0  0
    1.9290  -15.1340   19.5990 C   0  0  0  0  0  0  0  0  0  0  0  0
    0.4170  -15.0300   19.8020 C   0  0  0  0  0  0  0  0  0  0  0  0
   -0.0540  -16.4670   19.9950 C   0  0  1  0  0  0  0  0  0  0  0  0
   -0.5870  -16.9540   18.7620 O   0  0  0  0  0  0  0  0  0  0  0  0
    1.2220  -17.2260   20.3480 C   0  0  0  0  0  0  0  0  0  0  0  0
    4.1940  -20.0420   19.6110 C   0  0  0  0  0  0  0  0  0  0  0  0
    3.7870  -22.9670   20.3800 C   0  0  0  0  0  0  0  0  0  0  0  0
    3.6890  -24.2360   20.9150 N   0  0  0  0  0  0  0  0  0  0  0  0
    2.6200  -25.0690   20.8980 N   0  0  0  0  0  0  0  0  0  0  0  0
    3.0590  -26.1870   21.4780 C   0  0  0  0  0  0  0  0  0  0  0  0
    4.3950  -26.0880   21.8940 C   0  0  0  0  0  0  0  0  0  0  0  0
    4.7720  -24.8090   21.5500 C   0  0  0  0  0  0  0  0  0  0  0  0
    8.4340  -24.6940   21.7990 C   0  0  0  0  0  0  0  0  0  0  0  0
    9.3140  -25.1610   22.6870 N   0  0  0  0  0  0  0  0  0  0  0  0
  1  2  1  0
  2  3  1  0
  3  4  1  0
  4  5  1  0
  3  6  1  0
  6  7  1  0
  7  8  2  0
  8  9  1  0
  9 10  2  0
 10 11  1  0
 11 12  1  0
 12 13  1  0
 13 14  2  0
 14 15  1  0
 15 16  1  0
 16 17  1  0
 17 18  1  0
 18 19  1  0
 19 20  1  0
 20 21  1  0
 21 22  1  6
 21 23  1  0
 15 24  1  0
 11 25  2  0
 25 26  1  0
 26 27  1  0
 27 28  2  0
 28 29  1  0
 29 30  2  0
  8 31  1  0
 31 32  2  0
 32  6  1  0
 30  9  1  0
 24 12  2  0
 30 26  1  0
 23 18  1  0
M  END
$$$$
