XWEGZOWJKZVIPT-HXUWFJFHSA-N_8BXH_m7
     RDKit          3D

 32 36  0  0  0  0  0  0  0  0999 V2000
  -24.2910   17.4030   23.7130 C   0  0  0  0  0  0  0  0  0  0  0  0
  -23.2840   18.3260   23.0350 C   0  0  0  0  0  0  0  0  0  0  0  0
  -23.6000   18.5800   21.5480 C   0  0  0  0  0  0  0  0  0  0  0  0
  -24.7770   19.5560   21.3470 C   0  0  0  0  0  0  0  0  0  0  0  0
  -24.5170   20.9460   21.9130 C   0  0  0  0  0  0  0  0  0  0  0  0
  -22.4250   19.0600   20.8150 N   0  0  0  0  0  0  0  0  0  0  0  0
  -21.1190   19.0360   21.2250 C   0  0  0  0  0  0  0  0  0  0  0  0
  -20.3690   19.5900   20.2060 C   0  0  0  0  0  0  0  0  0  0  0  0
  -18.9370   19.7790   20.1070 C   0  0  0  0  0  0  0  0  0  0  0  0
  -18.2000   18.7060   20.0400 N   0  0  0  0  0  0  0  0  0  0  0  0
  -16.8230   18.8400   19.9800 C   0  0  0  0  0  0  0  0  0  0  0  0
  -16.1140   17.5950   19.9250 C   0  0  0  0  0  0  0  0  0  0  0  0
  -14.8160   17.3080   20.4050 C   0  0  0  0  0  0  0  0  0  0  0  0
  -14.4560   16.0380   20.1920 N   0  0  0  0  0  0  0  0  0  0  0  0
  -15.5240   15.5080   19.5710 N   0  0  0  0  0  0  0  0  0  0  0  0
  -15.5090   14.1120   19.1710 C   0  0  0  0  0  0  0  0  0  0  0  0
  -14.6320   13.2680   20.1020 C   0  0  0  0  0  0  0  0  0  0  0  0
  -13.4690   12.6790   19.4190 N   0  0  0  0  0  0  0  0  0  0  0  0
  -13.4920   11.2120   19.3750 C   0  0  0  0  0  0  0  0  0  0  0  0
  -12.0300   10.7930   19.2160 C   0  0  0  0  0  0  0  0  0  0  0  0
  -11.2290   12.0750   19.4120 C   0  0  1  0  0  0  0  0  0  0  0  0
  -10.8710   12.6030   18.1320 O   0  0  0  0  0  0  0  0  0  0  0  0
  -12.2090   13.0150   20.1080 C   0  0  0  0  0  0  0  0  0  0  0  0
  -16.5450   16.4000   19.3880 C   0  0  0  0  0  0  0  0  0  0  0  0
  -16.2220   20.0430   19.9840 C   0  0  0  0  0  0  0  0  0  0  0  0
  -16.9910   21.1890   20.0320 N   0  0  0  0  0  0  0  0  0  0  0  0
  -16.5720   22.4770   20.0250 N   0  0  0  0  0  0  0  0  0  0  0  0
  -17.6950   23.1940   20.0120 C   0  0  0  0  0  0  0  0  0  0  0  0
  -18.8460   22.3910   20.0330 C   0  0  0  0  0  0  0  0  0  0  0  0
  -18.3680   21.1010   20.0780 C   0  0  0  0  0  0  0  0  0  0  0  0
  -21.3370   19.8890   19.2140 C   0  0  0  0  0  0  0  0  0  0  0  0
  -22.5830   19.5940   19.5910 N   0  0  0  0  0  0  0  0  0  0  0  0
  1  2  1  0
  2  3  1  0
  3  4  1  0
  4  5  1  0
  3  6  1  0
  6  7  1  0
  7  8  2  0
  8  9  1  0
  9 10  2  0
 10 11  1  0
 11 12  1  0
 12 13  1  0
 13 14  2  0
 14 15  1  0
 15 16  1  0
 16 17  1  0
 17 18  1  0
 18 19  1  0
 19 20  1  0
 20 21  1  0
 21 22  1  6
 21 23  1  0
 15 24  1  0
 11 25  2  0
 25 26  1  0
 26 27  1  0
 27 28  2  0
 28 29  1  0
 29 30  2  0
  8 31  1  0
 31 32  2  0
 32  6  1  0
 30  9  1  0
 24 12  2  0
 30 26  1  0
 23 18  1  0
M  END
$$$$
