XWJGZMVWOIPRDB-CLIZBVFSSA-N_4UDW_m6
     RDKit          3D

 49 53  0  0  0  0  0  0  0  0999 V2000
  125.6980   -9.7060  166.7480 N   0  0  0  0  0  0  0  0  0  0  0  0
  124.8290  -10.6470  166.5680 C   0  0  0  0  0  0  0  0  0  0  0  0
  123.6360  -10.5250  167.1960 N   0  0  0  0  0  0  0  0  0  0  0  0
  125.1090  -11.8310  165.7140 C   0  0  0  0  0  0  0  0  0  0  0  0
  124.3070  -12.9700  165.8340 C   0  0  0  0  0  0  0  0  0  0  0  0
  124.5670  -14.0880  165.0400 C   0  0  0  0  0  0  0  0  0  0  0  0
  125.6210  -14.0740  164.1110 C   0  0  0  0  0  0  0  0  0  0  0  0
  125.9150  -15.3020  163.2850 C   0  0  0  0  0  0  0  0  0  0  0  0
  127.1540  -15.9050  163.7070 N   0  0  0  0  0  0  0  0  0  0  0  0
  128.1830  -16.1850  162.8360 C   0  0  0  0  0  0  0  0  0  0  0  0
  128.1120  -15.9660  161.6260 O   0  0  0  0  0  0  0  0  0  0  0  0
  129.3600  -16.9720  163.4490 C   0  0  2  0  0  0  0  0  0  0  0  0
  130.5810  -16.0380  163.4820 C   0  0  0  0  0  0  0  0  0  0  0  0
  131.4990  -16.2680  164.6630 C   0  0  0  0  0  0  0  0  0  0  0  0
  131.0100  -16.8200  165.8530 C   0  0  0  0  0  0  0  0  0  0  0  0
  131.8600  -17.0490  166.9390 C   0  0  0  0  0  0  0  0  0  0  0  0
  133.2130  -16.7260  166.8460 C   0  0  0  0  0  0  0  0  0  0  0  0
  133.7000  -16.1340  165.6800 C   0  0  0  0  0  0  0  0  0  0  0  0
  132.8510  -15.9090  164.5920 C   0  0  0  0  0  0  0  0  0  0  0  0
  134.1360  -16.9180  167.8360 O   0  0  0  0  0  0  0  0  0  0  0  0
  135.3760  -17.4830  167.4160 C   0  0  0  0  0  0  0  0  0  0  0  0
  135.5310  -18.8460  168.0710 C   0  0  0  0  0  0  0  0  0  0  0  0
  135.7470  -20.0220  167.4520 C   0  0  0  0  0  0  0  0  0  0  0  0
  135.9690  -20.1990  165.9770 C   0  0  0  0  0  0  0  0  0  0  0  0
  135.1250  -19.2890  165.2680 O   0  0  0  0  0  0  0  0  0  0  0  0
  133.9910  -19.8620  164.7600 C   0  0  0  0  0  0  0  0  0  0  0  0
  133.7490  -19.6430  163.4040 C   0  0  0  0  0  0  0  0  0  0  0  0
  132.6350  -20.2130  162.7860 C   0  0  0  0  0  0  0  0  0  0  0  0
  131.7350  -20.9880  163.5280 C   0  0  0  0  0  0  0  0  0  0  0  0
  131.9670  -21.1760  164.8980 C   0  0  0  0  0  0  0  0  0  0  0  0
  133.0870  -20.6140  165.5130 C   0  0  0  0  0  0  0  0  0  0  0  0
  130.5470  -21.6360  162.8570 C   0  0  0  0  0  0  0  0  0  0  0  0
  129.6080  -20.6060  162.2150 C   0  0  1  0  0  0  0  0  0  0  0  0
  128.3030  -21.2710  161.9360 N   0  0  0  0  0  0  0  0  0  0  0  0
  127.2290  -20.5280  160.8820 S   0  0  0  0  0  0  0  0  0  0  0  0
  126.9360  -21.4720  159.8190 O   0  0  0  0  0  0  0  0  0  0  0  0
  127.8190  -19.2390  160.6040 O   0  0  0  0  0  0  0  0  0  0  0  0
  125.7940  -20.3180  161.9450 C   0  0  0  0  0  0  0  0  0  0  0  0
  125.1060  -21.6460  162.1220 C   0  0  0  0  0  0  0  0  0  0  0  0
  123.9460  -21.9490  161.3970 C   0  0  0  0  0  0  0  0  0  0  0  0
  123.3230  -23.1910  161.5470 C   0  0  0  0  0  0  0  0  0  0  0  0
  123.8510  -24.1370  162.4240 C   0  0  0  0  0  0  0  0  0  0  0  0
  124.9970  -23.8420  163.1570 C   0  0  0  0  0  0  0  0  0  0  0  0
  125.6200  -22.6020  163.0110 C   0  0  0  0  0  0  0  0  0  0  0  0
  129.3160  -19.4440  163.1830 C   0  0  0  0  0  0  0  0  0  0  0  0
  128.7570  -19.6140  164.2630 O   0  0  0  0  0  0  0  0  0  0  0  0
  129.6430  -18.1980  162.6990 N   0  0  0  0  0  0  0  0  0  0  0  0
  126.4230  -12.9270  164.0010 C   0  0  0  0  0  0  0  0  0  0  0  0
  126.1660  -11.8070  164.7980 C   0  0  0  0  0  0  0  0  0  0  0  0
  1  2  2  3
  2  3  1  0
  2  4  1  0
  4  5  2  0
  5  6  1  0
  6  7  2  0
  7  8  1  0
  8  9  1  0
  9 10  1  0
 10 11  2  0
 12 10  1  6
 12 13  1  0
 13 14  1  0
 14 15  2  0
 15 16  1  0
 16 17  2  0
 17 18  1  0
 18 19  2  0
 17 20  1  0
 20 21  1  0
 21 22  1  0
 22 23  2  0
 23 24  1  0
 24 25  1  0
 25 26  1  0
 26 27  2  0
 27 28  1  0
 28 29  2  0
 29 30  1  0
 30 31  2  0
 29 32  1  0
 32 33  1  0
 33 34  1  1
 34 35  1  0
 35 36  2  0
 35 37  2  0
 35 38  1  0
 38 39  1  0
 39 40  2  0
 40 41  1  0
 41 42  2  0
 42 43  1  0
 43 44  2  0
 33 45  1  0
 45 46  2  0
 45 47  1  0
  7 48  1  0
 48 49  2  0
 49  4  1  0
 47 12  1  0
 19 14  1  0
 31 26  1  0
 44 39  1  0
M  END
$$$$
