XXZBELJQKKGJRL-FMFFXOCNSA-N_9V8H_m1
     RDKit          3D

 38 41  0  0  0  0  0  0  0  0999 V2000
  -12.5350   -5.7100  -26.1650 C   0  0  0  0  0  0  0  0  0  0  0  0
  -11.5900   -6.2190  -27.2340 C   0  0  0  0  0  0  0  0  0  0  0  0
  -11.3910   -5.5960  -28.3590 N   0  0  0  0  0  0  0  0  0  0  0  0
  -12.1400   -4.4110  -28.4240 O   0  0  0  0  0  0  0  0  0  0  0  0
  -12.5410   -4.1940  -29.7800 C   0  0  0  0  0  0  0  0  0  0  0  0
  -11.7740   -3.0360  -30.3780 C   0  0  0  0  0  0  0  0  0  0  0  0
  -12.4430   -1.9280  -30.9270 C   0  0  0  0  0  0  0  0  0  0  0  0
  -11.7220   -0.8830  -31.5090 C   0  0  0  0  0  0  0  0  0  0  0  0
  -10.3350   -0.9480  -31.5530 C   0  0  0  0  0  0  0  0  0  0  0  0
   -9.6440    0.0550  -32.1130 F   0  0  0  0  0  0  0  0  0  0  0  0
   -9.6530   -2.0410  -31.0320 C   0  0  0  0  0  0  0  0  0  0  0  0
  -10.3710   -3.0860  -30.4470 C   0  0  0  0  0  0  0  0  0  0  0  0
  -10.8260   -7.5160  -27.0010 C   0  0  1  0  0  0  0  0  0  0  0  0
  -11.3960   -8.3140  -25.8210 C   0  0  0  0  0  0  0  0  0  0  0  0
  -10.5050   -8.3010  -24.6010 C   0  0  0  0  0  0  0  0  0  0  0  0
   -9.2850   -7.6160  -24.6210 C   0  0  0  0  0  0  0  0  0  0  0  0
   -8.4720   -7.5930  -23.4860 C   0  0  0  0  0  0  0  0  0  0  0  0
   -8.8600   -8.2460  -22.3140 C   0  0  0  0  0  0  0  0  0  0  0  0
   -7.9630   -8.1430  -21.2870 O   0  0  0  0  0  0  0  0  0  0  0  0
   -6.8250   -7.2890  -21.4430 C   0  0  0  0  0  0  0  0  0  0  0  0
   -6.7380   -6.2510  -20.3230 C   0  0  0  0  0  0  0  0  0  0  0  0
   -5.5330   -5.3870  -20.4360 C   0  0  0  0  0  0  0  0  0  0  0  0
   -5.6410   -4.0850  -20.8740 N   0  0  0  0  0  0  0  0  0  0  0  0
   -4.4020   -3.6280  -20.8470 C   0  0  0  0  0  0  0  0  0  0  0  0
   -3.9010   -2.3030  -21.2050 C   0  0  0  0  0  0  0  0  0  0  0  0
   -2.7580   -2.1300  -22.0000 C   0  0  0  0  0  0  0  0  0  0  0  0
   -2.3020   -0.8490  -22.3260 C   0  0  0  0  0  0  0  0  0  0  0  0
   -2.9820    0.2740  -21.8590 C   0  0  0  0  0  0  0  0  0  0  0  0
   -4.1180    0.1190  -21.0680 C   0  0  0  0  0  0  0  0  0  0  0  0
   -4.5730   -1.1610  -20.7440 C   0  0  0  0  0  0  0  0  0  0  0  0
   -3.4790   -4.5480  -20.4180 O   0  0  0  0  0  0  0  0  0  0  0  0
   -4.2140   -5.6700  -20.1550 C   0  0  0  0  0  0  0  0  0  0  0  0
   -3.4810   -6.8530  -19.6750 C   0  0  0  0  0  0  0  0  0  0  0  0
  -10.0720   -8.9310  -22.2910 C   0  0  0  0  0  0  0  0  0  0  0  0
  -10.8890   -8.9590  -23.4260 C   0  0  0  0  0  0  0  0  0  0  0  0
  -10.7950   -8.3780  -28.2360 C   0  0  0  0  0  0  0  0  0  0  0  0
  -11.6730   -9.1220  -28.6390 O   0  0  0  0  0  0  0  0  0  0  0  0
   -9.6420   -8.2610  -28.9270 O   0  0  0  0  0  0  0  0  0  0  0  0
  1  2  1  0
  2  3  2  0
  3  4  1  0
  4  5  1  0
  5  6  1  0
  6  7  2  0
  7  8  1  0
  8  9  2  0
  9 10  1  0
  9 11  1  0
 11 12  2  0
  2 13  1  0
 13 14  1  1
 14 15  1  0
 15 16  2  0
 16 17  1  0
 17 18  2  0
 18 19  1  0
 19 20  1  0
 20 21  1  0
 21 22  1  0
 22 23  1  0
 23 24  2  0
 24 25  1  0
 25 26  2  0
 26 27  1  0
 27 28  2  0
 28 29  1  0
 29 30  2  0
 24 31  1  0
 31 32  1  0
 32 33  1  0
 18 34  1  0
 34 35  2  0
 13 36  1  0
 36 37  2  0
 36 38  1  0
 12  6  1  0
 35 15  1  0
 32 22  2  0
 30 25  1  0
M  END
$$$$
