XYFPWWZEPKGCCK-GOSISDBHSA-N_3POZ_m9
     RDKit          3D

 33 37  0  0  0  0  0  0  0  0999 V2000
   13.9090   34.8450   15.7950 C   0  0  0  0  0  0  0  0  0  0  0  0
   14.3760   34.5540   17.0160 C   0  0  0  0  0  0  0  0  0  0  0  0
   15.2110   35.5160   17.7710 C   0  0  0  0  0  0  0  0  0  0  0  0
   14.6510   36.2610   18.5700 O   0  0  0  0  0  0  0  0  0  0  0  0
   16.5710   35.5370   17.5230 N   0  0  0  0  0  0  0  0  0  0  0  0
   17.5790   36.2560   18.3040 C   0  0  0  0  0  0  0  0  0  0  0  0
   18.4750   37.0880   17.3900 C   0  0  0  0  0  0  0  0  0  0  0  0
   19.0990   36.2270   16.2900 C   0  0  0  0  0  0  0  0  0  0  0  0
   18.0170   35.4520   15.5170 C   0  0  1  0  0  0  0  0  0  0  0  0
   18.5820   34.6170   14.4670 N   0  0  0  0  0  0  0  0  0  0  0  0
   17.8700   34.4100   13.3390 N   0  0  0  0  0  0  0  0  0  0  0  0
   18.6700   33.6450   12.5760 C   0  0  0  0  0  0  0  0  0  0  0  0
   18.2420   33.2430   11.2420 C   0  0  0  0  0  0  0  0  0  0  0  0
   18.6700   32.0230   10.6950 C   0  0  0  0  0  0  0  0  0  0  0  0
   18.2570   31.6430    9.4160 C   0  0  0  0  0  0  0  0  0  0  0  0
   17.4340   32.4920    8.6720 C   0  0  0  0  0  0  0  0  0  0  0  0
   16.9720   32.1560    7.4210 O   0  0  0  0  0  0  0  0  0  0  0  0
   16.3060   30.9570    7.2960 C   0  0  0  0  0  0  0  0  0  0  0  0
   16.8830   29.8200    6.7230 C   0  0  0  0  0  0  0  0  0  0  0  0
   16.1340   28.6500    6.5980 C   0  0  0  0  0  0  0  0  0  0  0  0
   14.8060   28.6210    7.0270 C   0  0  0  0  0  0  0  0  0  0  0  0
   14.2240   29.7630    7.5770 C   0  0  0  0  0  0  0  0  0  0  0  0
   14.9720   30.9350    7.7060 C   0  0  0  0  0  0  0  0  0  0  0  0
   16.9940   33.7000    9.2120 C   0  0  0  0  0  0  0  0  0  0  0  0
   17.4080   34.0810   10.4910 C   0  0  0  0  0  0  0  0  0  0  0  0
   19.8910   33.3380   13.2440 C   0  0  0  0  0  0  0  0  0  0  0  0
   21.0570   32.5950   13.0180 C   0  0  0  0  0  0  0  0  0  0  0  0
   21.2960   31.8270   11.9050 N   0  0  0  0  0  0  0  0  0  0  0  0
   22.0220   32.6070   13.9620 N   0  0  0  0  0  0  0  0  0  0  0  0
   21.8160   33.3130   15.0890 C   0  0  0  0  0  0  0  0  0  0  0  0
   20.7370   34.0390   15.4240 N   0  0  0  0  0  0  0  0  0  0  0  0
   19.8050   34.0060   14.4550 C   0  0  0  0  0  0  0  0  0  0  0  0
   17.1090   34.6640   16.4710 C   0  0  0  0  0  0  0  0  0  0  0  0
  1  2  2  0
  2  3  1  0
  3  4  2  0
  3  5  1  0
  5  6  1  0
  6  7  1  0
  7  8  1  0
  8  9  1  0
  9 10  1  6
 10 11  1  0
 11 12  2  0
 12 13  1  0
 13 14  2  0
 14 15  1  0
 15 16  2  0
 16 17  1  0
 17 18  1  0
 18 19  2  0
 19 20  1  0
 20 21  2  0
 21 22  1  0
 22 23  2  0
 16 24  1  0
 24 25  2  0
 12 26  1  0
 26 27  2  0
 27 28  1  0
 27 29  1  0
 29 30  2  0
 30 31  1  0
 31 32  2  0
  9 33  1  0
 33  5  1  0
 32 10  1  0
 25 13  1  0
 32 26  1  0
 23 18  1  0
M  END
$$$$
