XYJPAVSBBNRJDP-UHFFFAOYSA-N_4EY7_m8
     RDKit          3D

 41 44  0  0  0  0  0  0  0  0999 V2000
  -23.5400  -42.8160   27.6440 C   0  0  0  0  0  0  0  0  0  0  0  0
  -22.8440  -41.5810   27.5260 O   0  0  0  0  0  0  0  0  0  0  0  0
  -22.0860  -41.4030   26.3980 C   0  0  0  0  0  0  0  0  0  0  0  0
  -20.7870  -41.8900   26.2360 C   0  0  0  0  0  0  0  0  0  0  0  0
  -20.0900  -41.6390   25.0460 C   0  0  0  0  0  0  0  0  0  0  0  0
  -18.7060  -42.1430   24.8320 C   0  0  0  0  0  0  0  0  0  0  0  0
  -17.9520  -42.2780   25.7870 O   0  0  0  0  0  0  0  0  0  0  0  0
  -18.3630  -42.4610   23.5350 N   0  0  0  0  0  0  0  0  0  0  0  0
  -17.0330  -42.9300   23.1940 C   0  0  0  0  0  0  0  0  0  0  0  0
  -16.0240  -41.7830   23.1690 C   0  0  0  0  0  0  0  0  0  0  0  0
  -14.8250  -42.0130   24.0920 C   0  0  0  0  0  0  0  0  0  0  0  0
  -14.6030  -43.4610   24.5390 C   0  0  0  0  0  0  0  0  0  0  0  0
  -14.8510  -43.7390   26.0250 C   0  0  0  0  0  0  0  0  0  0  0  0
  -13.5610  -43.8790   26.8360 C   0  0  0  0  0  0  0  0  0  0  0  0
  -13.6560  -45.0470   27.8240 C   0  0  0  0  0  0  0  0  0  0  0  0
  -12.6400  -46.1510   27.5280 C   0  0  0  0  0  0  0  0  0  0  0  0
  -11.6290  -46.3560   28.6410 C   0  0  0  0  0  0  0  0  0  0  0  0
  -10.4490  -46.6450   28.4600 O   0  0  0  0  0  0  0  0  0  0  0  0
  -12.1830  -46.1970   29.8980 N   0  0  0  0  0  0  0  0  0  0  0  0
  -11.3550  -46.4060   31.0050 N   0  0  0  0  0  0  0  0  0  0  0  0
  -10.9260  -45.2000   31.6190 C   0  0  0  0  0  0  0  0  0  0  0  0
   -9.5380  -44.9550   31.7970 C   0  0  0  0  0  0  0  0  0  0  0  0
   -9.1250  -43.8290   32.5370 C   0  0  0  0  0  0  0  0  0  0  0  0
  -10.0840  -42.9480   33.0550 C   0  0  0  0  0  0  0  0  0  0  0  0
  -11.4560  -43.1660   32.8780 C   0  0  0  0  0  0  0  0  0  0  0  0
  -12.3940  -42.2660   33.4150 C   0  0  0  0  0  0  0  0  0  0  0  0
  -13.7620  -42.4620   33.2380 C   0  0  0  0  0  0  0  0  0  0  0  0
  -14.2110  -43.5580   32.5140 C   0  0  0  0  0  0  0  0  0  0  0  0
  -13.2890  -44.4610   31.9790 C   0  0  0  0  0  0  0  0  0  0  0  0
  -11.8950  -44.2970   32.1540 C   0  0  0  0  0  0  0  0  0  0  0  0
   -7.6660  -43.5050   32.7570 C   0  0  0  0  0  0  0  0  0  0  0  0
   -6.7460  -44.7040   32.5550 C   0  0  0  0  0  0  0  0  0  0  0  0
   -7.0790  -45.3930   31.2420 C   0  0  0  0  0  0  0  0  0  0  0  0
   -8.5070  -45.9350   31.2700 C   0  0  0  0  0  0  0  0  0  0  0  0
  -20.6980  -40.9270   24.0020 C   0  0  0  0  0  0  0  0  0  0  0  0
  -21.9930  -40.4310   24.1500 C   0  0  0  0  0  0  0  0  0  0  0  0
  -22.6700  -39.7170   23.1950 O   0  0  0  0  0  0  0  0  0  0  0  0
  -21.8950  -39.0990   22.1750 C   0  0  0  0  0  0  0  0  0  0  0  0
  -22.6680  -40.6490   25.3630 C   0  0  0  0  0  0  0  0  0  0  0  0
  -23.9630  -40.2020   25.5050 O   0  0  0  0  0  0  0  0  0  0  0  0
  -23.9620  -38.8310   25.8970 C   0  0  0  0  0  0  0  0  0  0  0  0
  1  2  1  0
  2  3  1  0
  3  4  2  0
  4  5  1  0
  5  6  1  0
  6  7  2  0
  6  8  1  0
  8  9  1  0
  9 10  1  0
 10 11  1  0
 11 12  1  0
 12 13  1  0
 13 14  1  0
 14 15  1  0
 15 16  1  0
 16 17  1  0
 17 18  2  0
 17 19  1  0
 19 20  1  0
 20 21  1  0
 21 22  2  0
 22 23  1  0
 23 24  2  0
 24 25  1  0
 25 26  2  0
 26 27  1  0
 27 28  2  0
 28 29  1  0
 29 30  2  0
 23 31  1  0
 31 32  1  0
 32 33  1  0
 33 34  1  0
  5 35  2  0
 35 36  1  0
 36 37  1  0
 37 38  1  0
 36 39  2  0
 39 40  1  0
 40 41  1  0
 39  3  1  0
 30 21  1  0
 34 22  1  0
 30 25  1  0
M  END
$$$$
