XYXADRKHKBUJPO-UONOGXRCSA-N_6N7A_m2
     RDKit          3D

 30 33  0  0  0  0  0  0  0  0999 V2000
    7.7920  -27.2230   24.5610 C   0  0  0  0  0  0  0  0  0  0  0  0
    7.6230  -25.9450   23.7520 C   0  0  0  0  0  0  0  0  0  0  0  0
    6.3270  -25.9420   22.9680 C   0  0  0  0  0  0  0  0  0  0  0  0
    5.3030  -26.8190   23.3640 C   0  0  0  0  0  0  0  0  0  0  0  0
    4.0640  -26.8160   22.7210 C   0  0  0  0  0  0  0  0  0  0  0  0
    3.8320  -25.9310   21.6660 C   0  0  0  0  0  0  0  0  0  0  0  0
    2.5250  -25.8660   20.9650 C   0  0  0  0  0  0  0  0  0  0  0  0
    2.1160  -26.9800   20.2880 N   0  0  0  0  0  0  0  0  0  0  0  0
    1.8430  -24.8490   20.9720 O   0  0  0  0  0  0  0  0  0  0  0  0
    4.8410  -25.0450   21.2710 C   0  0  0  0  0  0  0  0  0  0  0  0
    6.0940  -25.0390   21.9080 C   0  0  0  0  0  0  0  0  0  0  0  0
    7.0910  -24.1410   21.4740 N   0  0  0  0  0  0  0  0  0  0  0  0
    7.6420  -24.4430   20.1490 C   0  0  0  0  0  0  0  0  0  0  0  0
    7.2800  -22.8010   21.8890 C   0  0  0  0  0  0  0  0  0  0  0  0
    8.4050  -22.4630   22.6530 C   0  0  0  0  0  0  0  0  0  0  0  0
    8.5290  -21.1250   23.0260 C   0  0  0  0  0  0  0  0  0  0  0  0
    7.5940  -20.1680   22.6490 C   0  0  0  0  0  0  0  0  0  0  0  0
    7.9480  -18.9230   23.1350 N   0  0  0  0  0  0  0  0  0  0  0  0
    9.0630  -19.1190   23.8020 C   0  0  0  0  0  0  0  0  0  0  0  0
    9.4500  -20.4290   23.7640 N   0  0  0  0  0  0  0  0  0  0  0  0
   10.6190  -20.9800   24.4030 C   0  0  0  0  0  0  0  0  0  0  0  0
    6.4920  -20.5640   21.8710 C   0  0  0  0  0  0  0  0  0  0  0  0
    5.5630  -19.5920   21.4960 N   0  0  0  0  0  0  0  0  0  0  0  0
    4.4840  -19.1860   22.2350 C   0  0  0  0  0  0  0  0  0  0  0  0
    4.1460  -19.5760   23.3430 O   0  0  0  0  0  0  0  0  0  0  0  0
    3.6270  -18.1600   21.5810 C   0  0  1  0  0  0  0  0  0  0  0  0
    2.8690  -18.5380   20.3240 C   0  0  0  0  0  0  0  0  0  0  0  0
    2.1300  -18.1730   21.5690 C   0  0  1  0  0  0  0  0  0  0  0  0
    1.4700  -19.1890   22.2360 F   0  0  0  0  0  0  0  0  0  0  0  0
    6.3720  -21.8660   21.5120 N   0  0  0  0  0  0  0  0  0  0  0  0
  1  2  1  0
  2  3  1  0
  3  4  2  0
  4  5  1  0
  5  6  2  0
  6  7  1  0
  7  8  1  0
  7  9  2  0
  6 10  1  0
 10 11  2  0
 11 12  1  0
 12 13  1  0
 12 14  1  0
 14 15  2  0
 15 16  1  0
 16 17  2  0
 17 18  1  0
 18 19  2  0
 19 20  1  0
 20 21  1  0
 17 22  1  0
 22 23  1  0
 23 24  1  0
 24 25  2  0
 26 24  1  1
 26 27  1  0
 27 28  1  0
 28 29  1  1
 22 30  2  0
 11  3  1  0
 30 14  1  0
 20 16  1  0
 28 26  1  0
M  END
$$$$
