YBILVISNRAVIPV-UHFFFAOYSA-N_4EY7_m5
     RDKit          3D

 48 52  0  0  0  0  0  0  0  0999 V2000
  -20.9460  -40.7620   19.4960 C   0  0  0  0  0  0  0  0  0  0  0  0
  -22.4470  -40.9470   19.3450 C   0  0  0  0  0  0  0  0  0  0  0  0
  -23.2100  -39.7450   19.7040 N   0  0  0  0  0  0  0  0  0  0  0  0
  -23.6170  -38.8410   18.6280 C   0  0  0  0  0  0  0  0  0  0  0  0
  -24.9930  -39.1690   18.0640 C   0  0  0  0  0  0  0  0  0  0  0  0
  -23.5260  -39.3680   21.0120 C   0  0  0  0  0  0  0  0  0  0  0  0
  -24.1230  -38.3360   21.3070 O   0  0  0  0  0  0  0  0  0  0  0  0
  -23.1230  -40.2560   22.1170 C   0  0  0  0  0  0  0  0  0  0  0  0
  -23.8880  -41.3930   22.3950 C   0  0  0  0  0  0  0  0  0  0  0  0
  -23.5270  -42.2570   23.4340 C   0  0  0  0  0  0  0  0  0  0  0  0
  -22.3900  -41.9170   24.1800 C   0  0  0  0  0  0  0  0  0  0  0  0
  -21.6430  -40.7700   23.9300 C   0  0  0  0  0  0  0  0  0  0  0  0
  -22.0040  -39.9130   22.8830 C   0  0  0  0  0  0  0  0  0  0  0  0
  -20.6070  -40.6600   24.8180 N   0  0  0  0  0  0  0  0  0  0  0  0
  -20.7100  -41.6950   25.6320 C   0  0  0  0  0  0  0  0  0  0  0  0
  -19.8230  -41.9190   26.8230 C   0  0  0  0  0  0  0  0  0  0  0  0
  -18.3950  -42.2770   26.4670 C   0  0  0  0  0  0  0  0  0  0  0  0
  -17.4160  -42.4070   27.4680 C   0  0  0  0  0  0  0  0  0  0  0  0
  -16.1070  -42.7550   27.1390 C   0  0  0  0  0  0  0  0  0  0  0  0
  -15.7770  -42.9760   25.8040 C   0  0  0  0  0  0  0  0  0  0  0  0
  -14.4640  -43.3110   25.4720 O   0  0  0  0  0  0  0  0  0  0  0  0
  -13.6850  -43.5840   26.5840 C   0  0  0  0  0  0  0  0  0  0  0  0
  -12.9870  -42.7890   27.1990 O   0  0  0  0  0  0  0  0  0  0  0  0
  -13.8050  -44.9100   26.9030 N   0  0  0  0  0  0  0  0  0  0  0  0
  -13.0740  -45.4950   28.0000 C   0  0  0  0  0  0  0  0  0  0  0  0
  -12.0810  -46.5630   27.5500 C   0  0  0  0  0  0  0  0  0  0  0  0
  -10.7730  -46.5240   28.3450 C   0  0  0  0  0  0  0  0  0  0  0  0
  -10.1470  -45.1270   28.4000 C   0  0  0  0  0  0  0  0  0  0  0  0
   -9.3090  -44.8200   29.6470 C   0  0  0  0  0  0  0  0  0  0  0  0
   -9.6920  -45.6100   30.9080 C   0  0  0  0  0  0  0  0  0  0  0  0
  -10.4930  -44.8510   31.8800 N   0  0  0  0  0  0  0  0  0  0  0  0
   -9.8840  -43.5350   32.1400 C   0  0  0  0  0  0  0  0  0  0  0  0
  -10.5790  -42.8380   33.3150 C   0  0  0  0  0  0  0  0  0  0  0  0
  -12.0800  -42.8450   33.1880 C   0  0  0  0  0  0  0  0  0  0  0  0
  -12.8590  -42.0000   33.9880 C   0  0  0  0  0  0  0  0  0  0  0  0
  -14.2510  -42.0340   33.9010 C   0  0  0  0  0  0  0  0  0  0  0  0
  -14.8720  -42.9140   33.0180 C   0  0  0  0  0  0  0  0  0  0  0  0
  -14.1030  -43.7650   32.2250 C   0  0  0  0  0  0  0  0  0  0  0  0
  -12.7030  -43.7500   32.3110 C   0  0  0  0  0  0  0  0  0  0  0  0
  -11.8840  -44.6620   31.4210 C   0  0  0  0  0  0  0  0  0  0  0  0
  -16.7140  -42.8040   24.7880 C   0  0  0  0  0  0  0  0  0  0  0  0
  -18.0230  -42.4530   25.1230 C   0  0  0  0  0  0  0  0  0  0  0  0
  -21.7520  -42.5170   25.2470 N   0  0  0  0  0  0  0  0  0  0  0  0
  -22.1760  -43.7610   25.8660 C   0  0  0  0  0  0  0  0  0  0  0  0
  -23.0570  -43.5660   27.1070 C   0  0  0  0  0  0  0  0  0  0  0  0
  -22.7400  -44.5130   28.2800 C   0  0  0  0  0  0  0  0  0  0  0  0
  -21.2970  -45.0180   28.1620 C   0  0  0  0  0  0  0  0  0  0  0  0
  -23.6910  -45.7120   28.3220 C   0  0  0  0  0  0  0  0  0  0  0  0
  1  2  1  0
  2  3  1  0
  3  4  1  0
  4  5  1  0
  3  6  1  0
  6  7  2  0
  6  8  1  0
  8  9  2  0
  9 10  1  0
 10 11  2  0
 11 12  1  0
 12 13  2  0
 12 14  1  0
 14 15  2  0
 15 16  1  0
 16 17  1  0
 17 18  2  0
 18 19  1  0
 19 20  2  0
 20 21  1  0
 21 22  1  0
 22 23  2  0
 22 24  1  0
 24 25  1  0
 25 26  1  0
 26 27  1  0
 27 28  1  0
 28 29  1  0
 29 30  1  0
 30 31  1  0
 31 32  1  0
 32 33  1  0
 33 34  1  0
 34 35  2  0
 35 36  1  0
 36 37  2  0
 37 38  1  0
 38 39  2  0
 39 40  1  0
 20 41  1  0
 41 42  2  0
 15 43  1  0
 43 44  1  0
 44 45  1  0
 45 46  1  0
 46 47  1  0
 46 48  1  0
 13  8  1  0
 42 17  1  0
 43 11  1  0
 40 31  1  0
 39 34  1  0
M  END
$$$$
