YBSJFWOBGCMAKL-UHFFFAOYSA-N_4UDW_m3
     RDKit          3D

 35 38  0  0  0  0  0  0  0  0999 V2000
  128.8090  -13.6020  161.7520 C   0  0  0  0  0  0  0  0  0  0  0  0
  128.9270  -14.9400  162.2810 N   0  0  0  0  0  0  0  0  0  0  0  0
  127.8810  -15.8190  162.4830 C   0  0  0  0  0  0  0  0  0  0  0  0
  126.4520  -15.4870  162.1670 C   0  0  0  0  0  0  0  0  0  0  0  0
  125.5970  -15.4620  163.3450 N   0  0  0  0  0  0  0  0  0  0  0  0
  125.3730  -14.3450  164.1260 C   0  0  0  0  0  0  0  0  0  0  0  0
  124.4650  -14.3110  165.1910 C   0  0  0  0  0  0  0  0  0  0  0  0
  124.3120  -13.1640  165.9810 C   0  0  0  0  0  0  0  0  0  0  0  0
  125.0820  -12.0300  165.7220 C   0  0  0  0  0  0  0  0  0  0  0  0
  124.9180  -10.8070  166.5490 C   0  0  0  0  0  0  0  0  0  0  0  0
  125.9180  -10.0500  166.8690 N   0  0  0  0  0  0  0  0  0  0  0  0
  123.6930  -10.4500  167.0070 N   0  0  0  0  0  0  0  0  0  0  0  0
  126.0050  -12.0470  164.6780 C   0  0  0  0  0  0  0  0  0  0  0  0
  126.1500  -13.1990  163.8970 C   0  0  0  0  0  0  0  0  0  0  0  0
  128.3240  -16.9690  162.9550 N   0  0  0  0  0  0  0  0  0  0  0  0
  129.6830  -16.8340  163.0610 C   0  0  0  0  0  0  0  0  0  0  0  0
  130.6280  -17.7660  163.5060 C   0  0  0  0  0  0  0  0  0  0  0  0
  131.9710  -17.3730  163.5370 C   0  0  0  0  0  0  0  0  0  0  0  0
  132.9940  -18.3310  164.0020 C   0  0  0  0  0  0  0  0  0  0  0  0
  133.5630  -18.9460  163.1050 O   0  0  0  0  0  0  0  0  0  0  0  0
  133.2300  -18.4290  165.3800 N   0  0  0  0  0  0  0  0  0  0  0  0
  133.1020  -19.7120  166.1140 C   0  0  0  0  0  0  0  0  0  0  0  0
  131.7920  -20.4410  165.8190 C   0  0  0  0  0  0  0  0  0  0  0  0
  130.6930  -19.9050  166.6870 C   0  0  0  0  0  0  0  0  0  0  0  0
  129.5710  -19.5750  166.3430 O   0  0  0  0  0  0  0  0  0  0  0  0
  131.0620  -19.8280  167.9810 O   0  0  0  0  0  0  0  0  0  0  0  0
  133.5330  -17.2850  166.1980 C   0  0  0  0  0  0  0  0  0  0  0  0
  132.6640  -16.7820  167.1640 C   0  0  0  0  0  0  0  0  0  0  0  0
  133.0240  -15.6580  167.9120 C   0  0  0  0  0  0  0  0  0  0  0  0
  134.2450  -15.0460  167.6830 C   0  0  0  0  0  0  0  0  0  0  0  0
  135.0530  -15.5850  166.7050 C   0  0  0  0  0  0  0  0  0  0  0  0
  134.7220  -16.6690  165.9680 N   0  0  0  0  0  0  0  0  0  0  0  0
  132.3790  -16.1120  163.0910 C   0  0  0  0  0  0  0  0  0  0  0  0
  131.4410  -15.1770  162.6390 C   0  0  0  0  0  0  0  0  0  0  0  0
  130.0950  -15.5700  162.6440 C   0  0  0  0  0  0  0  0  0  0  0  0
  1  2  1  0
  2  3  1  0
  3  4  1  0
  4  5  1  0
  5  6  1  0
  6  7  2  0
  7  8  1  0
  8  9  2  0
  9 10  1  0
 10 11  2  3
 10 12  1  0
  9 13  1  0
 13 14  2  0
  3 15  2  0
 15 16  1  0
 16 17  2  0
 17 18  1  0
 18 19  1  0
 19 20  2  0
 19 21  1  0
 21 22  1  0
 22 23  1  0
 23 24  1  0
 24 25  2  0
 24 26  1  0
 21 27  1  0
 27 28  2  0
 28 29  1  0
 29 30  2  0
 30 31  1  0
 31 32  2  0
 18 33  2  0
 33 34  1  0
 34 35  2  0
 35  2  1  0
 14  6  1  0
 35 16  1  0
 32 27  1  0
M  END
$$$$
