YCMUIWWODVYRLS-UHFFFAOYSA-N_4UDW_m8
     RDKit          3D

 23 25  0  0  0  0  0  0  0  0999 V2000
  127.5540  -13.3040  158.3660 N   0  0  0  0  0  0  0  0  0  0  0  0
  128.7080  -13.5850  158.8810 C   0  0  0  0  0  0  0  0  0  0  0  0
  129.8090  -13.1360  158.2340 N   0  0  0  0  0  0  0  0  0  0  0  0
  128.8440  -14.3640  160.1400 C   0  0  0  0  0  0  0  0  0  0  0  0
  127.7960  -15.1880  160.5620 C   0  0  0  0  0  0  0  0  0  0  0  0
  127.8980  -15.9260  161.7460 C   0  0  0  0  0  0  0  0  0  0  0  0
  129.0830  -15.8040  162.4820 C   0  0  0  0  0  0  0  0  0  0  0  0
  129.4590  -16.3990  163.6610 N   0  0  0  0  0  0  0  0  0  0  0  0
  130.7240  -16.0070  164.0500 C   0  0  0  0  0  0  0  0  0  0  0  0
  131.3700  -16.5020  165.2820 C   0  0  0  0  0  0  0  0  0  0  0  0
  132.2990  -15.6820  165.9470 C   0  0  0  0  0  0  0  0  0  0  0  0
  132.9330  -16.1200  167.1220 C   0  0  0  0  0  0  0  0  0  0  0  0
  133.8990  -15.2430  167.7950 N   0  0  0  0  0  0  0  0  0  0  0  0
  134.8520  -14.8140  167.1290 O   0  0  0  0  0  0  0  0  0  0  0  0
  133.7030  -14.9830  168.9900 O   0  0  0  0  0  0  0  0  0  0  0  0
  132.6580  -17.3810  167.6590 C   0  0  0  0  0  0  0  0  0  0  0  0
  131.7400  -18.2000  167.0100 C   0  0  0  0  0  0  0  0  0  0  0  0
  131.3690  -19.9090  167.7450 Br  0  0  0  0  0  0  0  0  0  0  0  0
  131.1000  -17.7720  165.8350 C   0  0  0  0  0  0  0  0  0  0  0  0
  130.1950  -18.6040  165.2140 O   0  0  0  0  0  0  0  0  0  0  0  0
  131.1590  -15.1270  163.0700 C   0  0  0  0  0  0  0  0  0  0  0  0
  130.1390  -14.9910  162.0850 C   0  0  0  0  0  0  0  0  0  0  0  0
  130.0220  -14.2530  160.8920 C   0  0  0  0  0  0  0  0  0  0  0  0
  1  2  2  3
  2  3  1  0
  2  4  1  0
  4  5  2  0
  5  6  1  0
  6  7  2  0
  7  8  1  0
  8  9  1  0
  9 10  1  0
 10 11  2  0
 11 12  1  0
 12 13  1  0
 13 14  2  0
 13 15  1  0
 12 16  2  0
 16 17  1  0
 17 18  1  0
 17 19  2  0
 19 20  1  0
  9 21  2  0
 21 22  1  0
 22 23  2  0
 23  4  1  0
 22  7  1  0
 19 10  1  0
M  CHG  2  13   1  15  -1
M  END
$$$$
