YCSUYVMGFIAGHE-UHFFFAOYSA-N_4JT6_m2
     RDKit          3D

 43 49  0  0  0  0  0  0  0  0999 V2000
   49.1110   -3.6680  -39.8210 C   0  0  0  0  0  0  0  0  0  0  0  0
   49.8110   -2.5610  -39.2480 O   0  0  0  0  0  0  0  0  0  0  0  0
   51.1450   -2.5480  -39.5120 C   0  0  0  0  0  0  0  0  0  0  0  0
   51.9350   -3.3550  -39.0350 O   0  0  0  0  0  0  0  0  0  0  0  0
   51.5070   -1.5240  -40.3720 N   0  0  0  0  0  0  0  0  0  0  0  0
   52.9120   -1.3320  -40.7050 C   0  0  0  0  0  0  0  0  0  0  0  0
   53.1070   -1.1830  -42.2090 C   0  0  0  0  0  0  0  0  0  0  0  0
   52.1900   -0.0830  -42.7580 C   0  0  0  0  0  0  0  0  0  0  0  0
   52.3650    0.1030  -44.1920 N   0  0  0  0  0  0  0  0  0  0  0  0
   53.3570    0.8910  -44.6680 N   0  0  0  0  0  0  0  0  0  0  0  0
   53.1870    0.8280  -45.9930 C   0  0  0  0  0  0  0  0  0  0  0  0
   52.1280   -0.0200  -46.3830 C   0  0  0  0  0  0  0  0  0  0  0  0
   51.5090   -0.4670  -47.5620 C   0  0  0  0  0  0  0  0  0  0  0  0
   51.9040   -0.1410  -48.8330 N   0  0  0  0  0  0  0  0  0  0  0  0
   51.4350   -0.7820  -50.0630 C   0  0  2  0  0  0  0  0  0  0  0  0
   52.5030   -0.3040  -51.0660 C   0  0  0  0  0  0  0  0  0  0  0  0
   52.9940    1.0420  -50.5030 C   0  0  0  0  0  0  0  0  0  0  0  0
   52.1670    1.2520  -49.2190 C   0  0  1  0  0  0  0  0  0  0  0  0
   50.8110    1.9250  -49.5590 C   0  0  0  0  0  0  0  0  0  0  0  0
   50.1300    1.2550  -50.6430 O   0  0  0  0  0  0  0  0  0  0  0  0
   50.0510   -0.1710  -50.4170 C   0  0  0  0  0  0  0  0  0  0  0  0
   50.4170   -1.2680  -47.4120 N   0  0  0  0  0  0  0  0  0  0  0  0
   49.9820   -1.6220  -46.1800 C   0  0  0  0  0  0  0  0  0  0  0  0
   48.7950   -2.5030  -46.1110 C   0  0  0  0  0  0  0  0  0  0  0  0
   48.5450   -3.4770  -47.0930 C   0  0  0  0  0  0  0  0  0  0  0  0
   47.4220   -4.3170  -47.0360 C   0  0  0  0  0  0  0  0  0  0  0  0
   46.5080   -4.2050  -45.9910 C   0  0  0  0  0  0  0  0  0  0  0  0
   45.3510   -5.0010  -45.8620 N   0  0  0  0  0  0  0  0  0  0  0  0
   45.1650   -6.0860  -45.0200 C   0  0  0  0  0  0  0  0  0  0  0  0
   45.9580   -6.4670  -44.1700 O   0  0  0  0  0  0  0  0  0  0  0  0
   43.9390   -6.6890  -45.2700 N   0  0  0  0  0  0  0  0  0  0  0  0
   43.3410   -7.7260  -44.5230 C   0  0  0  0  0  0  0  0  0  0  0  0
   42.4140   -7.3660  -43.5410 C   0  0  0  0  0  0  0  0  0  0  0  0
   41.8110   -8.3470  -42.7570 C   0  0  0  0  0  0  0  0  0  0  0  0
   42.1580   -9.6690  -42.9770 C   0  0  0  0  0  0  0  0  0  0  0  0
   43.0440  -10.0600  -43.9150 N   0  0  0  0  0  0  0  0  0  0  0  0
   43.6150   -9.0840  -44.6670 C   0  0  0  0  0  0  0  0  0  0  0  0
   46.7330   -3.2350  -45.0080 C   0  0  0  0  0  0  0  0  0  0  0  0
   47.8610   -2.4040  -45.0660 C   0  0  0  0  0  0  0  0  0  0  0  0
   50.5350   -1.2560  -45.0120 N   0  0  0  0  0  0  0  0  0  0  0  0
   51.5970   -0.4550  -45.1810 C   0  0  0  0  0  0  0  0  0  0  0  0
   50.7250   -0.3630  -42.3960 C   0  0  0  0  0  0  0  0  0  0  0  0
   50.5700   -0.5320  -40.8890 C   0  0  0  0  0  0  0  0  0  0  0  0
  1  2  1  0
  2  3  1  0
  3  4  2  0
  3  5  1  0
  5  6  1  0
  6  7  1  0
  7  8  1  0
  8  9  1  0
  9 10  1  0
 10 11  2  0
 11 12  1  0
 12 13  2  0
 13 14  1  0
 14 15  1  0
 15 16  1  6
 16 17  1  0
 18 17  1  6
 18 19  1  0
 19 20  1  0
 20 21  1  0
 13 22  1  0
 22 23  2  0
 23 24  1  0
 24 25  2  0
 25 26  1  0
 26 27  2  0
 27 28  1  0
 28 29  1  0
 29 30  2  0
 29 31  1  0
 31 32  1  0
 32 33  2  0
 33 34  1  0
 34 35  2  0
 35 36  1  0
 36 37  2  0
 27 38  1  0
 38 39  2  0
 23 40  1  0
 40 41  2  0
  8 42  1  0
 42 43  1  0
 43  5  1  0
 41  9  1  0
 41 12  1  0
 18 14  1  0
 39 24  1  0
 21 15  1  0
 37 32  1  0
M  END
$$$$
