YDNAXUMKGRAZTP-UHFFFAOYSA-N_9V8H_m8
     RDKit          3D

 34 37  0  0  0  0  0  0  0  0999 V2000
  -12.0630   -6.4470  -27.4240 C   0  0  0  0  0  0  0  0  0  0  0  0
  -10.8960   -7.1230  -28.0890 C   0  0  0  0  0  0  0  0  0  0  0  0
  -10.5660   -6.7890  -29.4160 C   0  0  0  0  0  0  0  0  0  0  0  0
   -9.4790   -7.4080  -30.0830 C   0  0  0  0  0  0  0  0  0  0  0  0
   -8.9700   -7.2290  -31.4300 C   0  0  0  0  0  0  0  0  0  0  0  0
   -9.5450   -6.2740  -32.4430 C   0  0  0  0  0  0  0  0  0  0  0  0
   -8.9870   -4.8740  -32.2950 C   0  0  0  0  0  0  0  0  0  0  0  0
   -9.4610   -3.9340  -31.6810 O   0  0  0  0  0  0  0  0  0  0  0  0
   -7.8190   -4.7120  -32.9650 O   0  0  0  0  0  0  0  0  0  0  0  0
   -7.8940   -8.0610  -31.6730 C   0  0  0  0  0  0  0  0  0  0  0  0
   -7.4920   -9.0370  -30.3370 S   0  0  0  0  0  0  0  0  0  0  0  0
   -8.7570   -8.3740  -29.3780 C   0  0  0  0  0  0  0  0  0  0  0  0
   -9.0750   -8.7230  -28.0470 C   0  0  0  0  0  0  0  0  0  0  0  0
  -10.1290   -8.0710  -27.4020 C   0  0  0  0  0  0  0  0  0  0  0  0
  -10.4950   -8.3030  -26.0990 O   0  0  0  0  0  0  0  0  0  0  0  0
   -9.4630   -8.2570  -25.1120 C   0  0  0  0  0  0  0  0  0  0  0  0
  -10.0530   -8.6300  -23.7680 C   0  0  0  0  0  0  0  0  0  0  0  0
  -11.4480   -8.7850  -23.6570 C   0  0  0  0  0  0  0  0  0  0  0  0
  -12.0330   -9.1500  -22.4450 C   0  0  0  0  0  0  0  0  0  0  0  0
  -11.2340   -9.3680  -21.3270 C   0  0  0  0  0  0  0  0  0  0  0  0
   -9.8480   -9.2130  -21.4160 C   0  0  0  0  0  0  0  0  0  0  0  0
   -9.2390   -8.8420  -22.6270 C   0  0  0  0  0  0  0  0  0  0  0  0
   -7.7350   -8.6460  -22.6630 C   0  0  0  0  0  0  0  0  0  0  0  0
   -7.2600   -8.4420  -21.3430 O   0  0  0  0  0  0  0  0  0  0  0  0
   -6.6660   -7.2370  -21.0690 C   0  0  0  0  0  0  0  0  0  0  0  0
   -5.2750   -7.2910  -20.8920 C   0  0  0  0  0  0  0  0  0  0  0  0
   -4.5340   -6.1340  -20.6000 C   0  0  0  0  0  0  0  0  0  0  0  0
   -5.1800   -4.8990  -20.4790 C   0  0  0  0  0  0  0  0  0  0  0  0
   -4.3940   -3.6420  -20.1730 C   0  0  0  0  0  0  0  0  0  0  0  0
   -3.0460   -3.8520  -20.1560 F   0  0  0  0  0  0  0  0  0  0  0  0
   -4.7040   -3.1150  -18.9520 F   0  0  0  0  0  0  0  0  0  0  0  0
   -4.5930   -2.6430  -21.0770 F   0  0  0  0  0  0  0  0  0  0  0  0
   -6.5740   -4.8490  -20.6700 C   0  0  0  0  0  0  0  0  0  0  0  0
   -7.3140   -6.0100  -20.9600 C   0  0  0  0  0  0  0  0  0  0  0  0
  1  2  1  0
  2  3  2  0
  3  4  1  0
  4  5  1  0
  5  6  1  0
  6  7  1  0
  7  8  2  0
  7  9  1  0
  5 10  2  0
 10 11  1  0
 11 12  1  0
 12 13  1  0
 13 14  2  0
 14 15  1  0
 15 16  1  0
 16 17  1  0
 17 18  2  0
 18 19  1  0
 19 20  2  0
 20 21  1  0
 21 22  2  0
 22 23  1  0
 23 24  1  0
 24 25  1  0
 25 26  2  0
 26 27  1  0
 27 28  2  0
 28 29  1  0
 29 30  1  0
 29 31  1  0
 29 32  1  0
 28 33  1  0
 33 34  2  0
 14  2  1  0
 22 17  1  0
 34 25  1  0
 12  4  2  0
M  END
$$$$
