YDNAXUMKGRAZTP-UHFFFAOYSA-N_5U3Q_m4
     RDKit          3D

 34 37  0  0  0  0  0  0  0  0999 V2000
   41.5650  -36.9760  108.0890 C   0  0  0  0  0  0  0  0  0  0  0  0
   42.5100  -38.0800  107.7070 C   0  0  0  0  0  0  0  0  0  0  0  0
   43.8600  -38.0040  108.1010 C   0  0  0  0  0  0  0  0  0  0  0  0
   44.7870  -39.0200  107.7540 C   0  0  0  0  0  0  0  0  0  0  0  0
   46.2040  -39.1440  108.0410 C   0  0  0  0  0  0  0  0  0  0  0  0
   47.0110  -38.1420  108.8240 C   0  0  0  0  0  0  0  0  0  0  0  0
   47.7680  -37.1850  107.9260 C   0  0  0  0  0  0  0  0  0  0  0  0
   48.9610  -37.1630  107.6810 O   0  0  0  0  0  0  0  0  0  0  0  0
   46.9550  -36.2550  107.3650 O   0  0  0  0  0  0  0  0  0  0  0  0
   46.7270  -40.2970  107.4870 C   0  0  0  0  0  0  0  0  0  0  0  0
   45.5670  -41.2160  106.6450 S   0  0  0  0  0  0  0  0  0  0  0  0
   44.3140  -40.0910  106.9930 C   0  0  0  0  0  0  0  0  0  0  0  0
   42.9640  -40.1830  106.5870 C   0  0  0  0  0  0  0  0  0  0  0  0
   42.0640  -39.1860  106.9740 C   0  0  0  0  0  0  0  0  0  0  0  0
   40.7250  -39.1980  106.6700 O   0  0  0  0  0  0  0  0  0  0  0  0
   40.2790  -40.1750  105.7270 C   0  0  0  0  0  0  0  0  0  0  0  0
   39.5840  -39.4680  104.5820 C   0  0  0  0  0  0  0  0  0  0  0  0
   38.2150  -39.1600  104.7040 C   0  0  0  0  0  0  0  0  0  0  0  0
   37.5390  -38.4890  103.6840 C   0  0  0  0  0  0  0  0  0  0  0  0
   38.2200  -38.1160  102.5290 C   0  0  0  0  0  0  0  0  0  0  0  0
   39.5770  -38.4200  102.3870 C   0  0  0  0  0  0  0  0  0  0  0  0
   40.2750  -39.0980  103.4020 C   0  0  0  0  0  0  0  0  0  0  0  0
   41.7370  -39.4420  103.1840 C   0  0  0  0  0  0  0  0  0  0  0  0
   42.1870  -38.8260  101.9890 O   0  0  0  0  0  0  0  0  0  0  0  0
   42.8430  -39.6190  101.0830 C   0  0  0  0  0  0  0  0  0  0  0  0
   42.3480  -39.5520   99.7720 C   0  0  0  0  0  0  0  0  0  0  0  0
   42.9190  -40.3150   98.7400 C   0  0  0  0  0  0  0  0  0  0  0  0
   43.9970  -41.1630   99.0080 C   0  0  0  0  0  0  0  0  0  0  0  0
   44.6280  -41.9860   97.9050 C   0  0  0  0  0  0  0  0  0  0  0  0
   45.4560  -42.9610   98.3800 F   0  0  0  0  0  0  0  0  0  0  0  0
   45.3880  -41.2310   97.0580 F   0  0  0  0  0  0  0  0  0  0  0  0
   43.7200  -42.6340   97.1220 F   0  0  0  0  0  0  0  0  0  0  0  0
   44.4980  -41.2190  100.3240 C   0  0  0  0  0  0  0  0  0  0  0  0
   43.9230  -40.4550  101.3560 C   0  0  0  0  0  0  0  0  0  0  0  0
  1  2  1  0
  2  3  2  0
  3  4  1  0
  4  5  1  0
  5  6  1  0
  6  7  1  0
  7  8  2  0
  7  9  1  0
  5 10  2  0
 10 11  1  0
 11 12  1  0
 12 13  1  0
 13 14  2  0
 14 15  1  0
 15 16  1  0
 16 17  1  0
 17 18  2  0
 18 19  1  0
 19 20  2  0
 20 21  1  0
 21 22  2  0
 22 23  1  0
 23 24  1  0
 24 25  1  0
 25 26  2  0
 26 27  1  0
 27 28  2  0
 28 29  1  0
 29 30  1  0
 29 31  1  0
 29 32  1  0
 28 33  1  0
 33 34  2  0
 14  2  1  0
 22 17  1  0
 34 25  1  0
 12  4  2  0
M  END
$$$$
