YGIVJNKHBGEKKY-XLIONFOSSA-N_8BXH_m4
     RDKit          3D

 35 38  0  0  0  0  0  0  0  0999 V2000
   -5.4610   16.4820   23.3680 C   0  0  0  0  0  0  0  0  0  0  0  0
   -5.5870   17.5060   22.2930 N   0  0  0  0  0  0  0  0  0  0  0  0
   -4.9840   18.8630   22.6290 C   0  0  0  0  0  0  0  0  0  0  0  0
   -5.8630   19.9790   22.0330 C   0  0  0  0  0  0  0  0  0  0  0  0
   -4.9830   19.0960   24.1580 C   0  0  0  0  0  0  0  0  0  0  0  0
   -3.5430   18.9850   22.1160 C   0  0  0  0  0  0  0  0  0  0  0  0
   -5.3030   16.8580   20.7180 S   0  0  0  0  0  0  0  0  0  0  0  0
   -4.2320   15.8870   20.8330 O   0  0  0  0  0  0  0  0  0  0  0  0
   -5.2380   17.9240   19.7440 O   0  0  0  0  0  0  0  0  0  0  0  0
   -6.8170   15.9820   20.3940 C   0  0  0  0  0  0  0  0  0  0  0  0
   -8.0480   16.5410   20.7350 C   0  0  0  0  0  0  0  0  0  0  0  0
   -9.2230   15.8330   20.4680 C   0  0  0  0  0  0  0  0  0  0  0  0
   -9.1880   14.5590   19.8820 C   0  0  0  0  0  0  0  0  0  0  0  0
  -10.3440   13.8180   19.5630 N   0  0  0  0  0  0  0  0  0  0  0  0
  -11.6580   14.0460   19.8050 C   0  0  0  0  0  0  0  0  0  0  0  0
  -12.2590   15.2050   20.1160 N   0  0  0  0  0  0  0  0  0  0  0  0
  -13.5760   14.9090   20.2180 N   0  0  0  0  0  0  0  0  0  0  0  0
  -14.5240   16.0010   20.4930 C   0  0  1  0  0  0  0  0  0  0  0  0
  -13.9440   16.8650   21.6390 C   0  0  0  0  0  0  0  0  0  0  0  0
  -13.2750   18.1680   21.2250 C   0  0  0  0  0  0  0  0  0  0  0  0
  -14.2100   19.3830   21.1340 C   0  0  0  0  0  0  0  0  0  0  0  0
  -14.9710   19.4020   19.8170 C   0  0  0  0  0  0  0  0  0  0  0  0
  -15.6710   18.0980   19.4560 C   0  0  0  0  0  0  0  0  0  0  0  0
  -14.8190   16.8310   19.2170 C   0  0  2  0  0  0  0  0  0  0  0  0
  -15.5330   16.0340   18.1880 C   0  0  0  0  0  0  0  0  0  0  0  0
  -16.1500   15.4320   17.4100 N   0  0  0  0  0  0  0  0  0  0  0  0
  -13.8290   13.5900   19.9910 C   0  0  0  0  0  0  0  0  0  0  0  0
  -15.0660   12.9120   19.9830 C   0  0  0  0  0  0  0  0  0  0  0  0
  -14.9890   11.6010   19.6790 C   0  0  0  0  0  0  0  0  0  0  0  0
  -13.7830   10.9730   19.3950 N   0  0  0  0  0  0  0  0  0  0  0  0
  -12.5420   11.6080   19.3820 C   0  0  0  0  0  0  0  0  0  0  0  0
  -11.4990   11.0210   19.1140 O   0  0  0  0  0  0  0  0  0  0  0  0
  -12.6120   13.0130   19.7090 C   0  0  0  0  0  0  0  0  0  0  0  0
   -7.9320   14.0170   19.5540 C   0  0  0  0  0  0  0  0  0  0  0  0
   -6.7510   14.7190   19.8040 C   0  0  0  0  0  0  0  0  0  0  0  0
  1  2  1  0
  2  3  1  0
  3  4  1  0
  3  5  1  0
  3  6  1  0
  2  7  1  0
  7  8  2  0
  7  9  2  0
  7 10  1  0
 10 11  2  0
 11 12  1  0
 12 13  2  0
 13 14  1  0
 14 15  1  0
 15 16  2  0
 16 17  1  0
 18 17  1  6
 18 19  1  0
 19 20  1  0
 20 21  1  0
 21 22  1  0
 22 23  1  0
 23 24  1  0
 24 25  1  6
 25 26  3  0
 17 27  1  0
 27 28  1  0
 28 29  2  0
 29 30  1  0
 30 31  1  0
 31 32  2  0
 31 33  1  0
 13 34  1  0
 34 35  2  0
 35 10  1  0
 33 15  1  0
 24 18  1  0
 33 27  2  0
M  END
$$$$
