YGMAIAXBJLVVLI-KLJDGLGGSA-N_4UDW_m4
     RDKit          3D

 49 50  0  0  0  0  0  0  0  0999 V2000
  130.9680  -14.3640  163.2040 C   0  0  0  0  0  0  0  0  0  0  0  0
  131.4570  -15.8050  163.3910 C   0  0  0  0  0  0  0  0  0  0  0  0
  132.9500  -15.7790  163.7410 C   0  0  0  0  0  0  0  0  0  0  0  0
  130.6360  -16.5470  164.4710 C   0  0  2  0  0  0  0  0  0  0  0  0
  131.5070  -17.1980  165.4440 N   0  0  0  0  0  0  0  0  0  0  0  0
  131.1200  -17.4920  166.7260 C   0  0  0  0  0  0  0  0  0  0  0  0
  129.9640  -17.3260  167.1170 O   0  0  0  0  0  0  0  0  0  0  0  0
  132.2000  -18.1710  167.6020 C   0  0  2  0  0  0  0  0  0  0  0  0
  133.6210  -17.8160  167.1350 C   0  0  0  0  0  0  0  0  0  0  0  0
  134.2060  -16.5560  167.7970 C   0  0  0  0  0  0  0  0  0  0  0  0
  135.0040  -15.7010  166.8110 C   0  0  0  0  0  0  0  0  0  0  0  0
  136.0630  -16.4650  166.1920 N   0  0  0  0  0  0  0  0  0  0  0  0
  137.3350  -16.0670  165.9820 C   0  0  0  0  0  0  0  0  0  0  0  0
  137.8520  -14.9260  166.2630 N   0  0  0  0  0  0  0  0  0  0  0  0
  138.0970  -17.0120  165.4160 N   0  0  0  0  0  0  0  0  0  0  0  0
  132.0340  -19.6250  167.7100 N   0  0  0  0  0  0  0  0  0  0  0  0
  132.0070  -20.4540  166.6100 C   0  0  0  0  0  0  0  0  0  0  0  0
  132.2170  -20.0340  165.4720 O   0  0  0  0  0  0  0  0  0  0  0  0
  131.7350  -21.9150  166.9200 C   0  0  0  0  0  0  0  0  0  0  0  0
  130.3860  -22.1340  167.5570 C   0  0  0  0  0  0  0  0  0  0  0  0
  130.2900  -22.8070  168.7870 C   0  0  0  0  0  0  0  0  0  0  0  0
  129.0460  -23.0230  169.3780 C   0  0  0  0  0  0  0  0  0  0  0  0
  127.8850  -22.5800  168.7470 C   0  0  0  0  0  0  0  0  0  0  0  0
  127.9690  -21.9230  167.5180 C   0  0  0  0  0  0  0  0  0  0  0  0
  129.2130  -21.7030  166.9210 C   0  0  0  0  0  0  0  0  0  0  0  0
  129.7860  -17.6690  163.8440 C   0  0  0  0  0  0  0  0  0  0  0  0
  130.2810  -18.5890  163.1910 O   0  0  0  0  0  0  0  0  0  0  0  0
  128.4390  -17.5580  164.0730 N   0  0  0  0  0  0  0  0  0  0  0  0
  127.4660  -18.5190  163.5540 C   0  0  1  0  0  0  0  0  0  0  0  0
  127.2260  -19.6410  164.5810 C   0  0  0  0  0  0  0  0  0  0  0  0
  127.1600  -21.0540  163.9890 C   0  0  0  0  0  0  0  0  0  0  0  0
  125.7330  -21.6020  163.9240 C   0  0  0  0  0  0  0  0  0  0  0  0
  125.1350  -21.3040  162.6370 N   0  0  0  0  0  0  0  0  0  0  0  0
  124.1880  -22.0600  162.0540 C   0  0  0  0  0  0  0  0  0  0  0  0
  123.8320  -23.2260  162.4640 N   0  0  0  0  0  0  0  0  0  0  0  0
  123.6300  -21.4750  160.9840 N   0  0  0  0  0  0  0  0  0  0  0  0
  126.1790  -17.7190  163.2860 C   0  0  0  0  0  0  0  0  0  0  0  0
  125.0850  -18.2710  163.1520 O   0  0  0  0  0  0  0  0  0  0  0  0
  126.3600  -16.3620  163.1860 N   0  0  0  0  0  0  0  0  0  0  0  0
  125.2910  -15.4640  162.8350 C   0  0  0  0  0  0  0  0  0  0  0  0
  125.2490  -14.2840  163.7750 C   0  0  0  0  0  0  0  0  0  0  0  0
  126.0770  -13.1740  163.5590 C   0  0  0  0  0  0  0  0  0  0  0  0
  126.0280  -12.0710  164.4170 C   0  0  0  0  0  0  0  0  0  0  0  0
  125.1410  -12.0680  165.4980 C   0  0  0  0  0  0  0  0  0  0  0  0
  125.0920  -10.9090  166.4270 C   0  0  0  0  0  0  0  0  0  0  0  0
  126.1430  -10.2050  166.7090 N   0  0  0  0  0  0  0  0  0  0  0  0
  123.9280  -10.5510  167.0180 N   0  0  0  0  0  0  0  0  0  0  0  0
  124.3020  -13.1650  165.7150 C   0  0  0  0  0  0  0  0  0  0  0  0
  124.3510  -14.2640  164.8530 C   0  0  0  0  0  0  0  0  0  0  0  0
  1  2  1  0
  2  3  1  0
  2  4  1  0
  4  5  1  1
  5  6  1  0
  6  7  2  0
  6  8  1  0
  8  9  1  6
  9 10  1  0
 10 11  1  0
 11 12  1  0
 12 13  1  0
 13 14  2  3
 13 15  1  0
  8 16  1  0
 16 17  1  0
 17 18  2  0
 17 19  1  0
 19 20  1  0
 20 21  2  0
 21 22  1  0
 22 23  2  0
 23 24  1  0
 24 25  2  0
  4 26  1  0
 26 27  2  0
 26 28  1  0
 28 29  1  0
 29 30  1  1
 30 31  1  0
 31 32  1  0
 32 33  1  0
 33 34  1  0
 34 35  2  3
 34 36  1  0
 29 37  1  0
 37 38  2  0
 37 39  1  0
 39 40  1  0
 40 41  1  0
 41 42  2  0
 42 43  1  0
 43 44  2  0
 44 45  1  0
 45 46  2  3
 45 47  1  0
 44 48  1  0
 48 49  2  0
 25 20  1  0
 49 41  1  0
M  END
$$$$
