YOVVNQKCSKSHKT-HNNXBMFYSA-N_4L23_m9
     RDKit          3D

 35 39  0  0  0  0  0  0  0  0999 V2000
   32.8010   46.0040   37.1780 C   0  0  0  0  0  0  0  0  0  0  0  0
   34.0380   46.4380   37.8960 C   0  0  0  0  0  0  0  0  0  0  0  0
   35.2740   46.6260   37.2990 C   0  0  0  0  0  0  0  0  0  0  0  0
   35.6560   46.4680   35.8490 C   0  0  0  0  0  0  0  0  0  0  0  0
   36.7430   45.4900   35.6650 N   0  0  0  0  0  0  0  0  0  0  0  0
   36.6830   44.4580   36.7230 C   0  0  0  0  0  0  0  0  0  0  0  0
   37.7860   43.3920   36.5650 C   0  0  0  0  0  0  0  0  0  0  0  0
   37.7520   42.7930   35.2290 N   0  0  0  0  0  0  0  0  0  0  0  0
   37.7180   41.4440   34.9320 C   0  0  0  0  0  0  0  0  0  0  0  0
   37.6320   41.0240   33.7720 O   0  0  0  0  0  0  0  0  0  0  0  0
   37.7820   40.4160   36.0800 C   0  0  2  0  0  0  0  0  0  0  0  0
   38.5380   39.1710   35.6470 C   0  0  0  0  0  0  0  0  0  0  0  0
   36.4630   40.0180   36.4620 O   0  0  0  0  0  0  0  0  0  0  0  0
   37.7620   43.7740   34.1410 C   0  0  0  0  0  0  0  0  0  0  0  0
   36.6660   44.8400   34.3340 C   0  0  0  0  0  0  0  0  0  0  0  0
   36.4550   47.1080   38.4320 S   0  0  0  0  0  0  0  0  0  0  0  0
   35.3540   47.0840   39.7570 C   0  0  0  0  0  0  0  0  0  0  0  0
   35.5460   47.3600   41.1270 C   0  0  0  0  0  0  0  0  0  0  0  0
   36.7140   47.7800   41.7300 N   0  0  0  0  0  0  0  0  0  0  0  0
   37.8220   46.8910   42.0810 C   0  0  0  0  0  0  0  0  0  0  0  0
   39.1620   47.6380   41.9540 C   0  0  0  0  0  0  0  0  0  0  0  0
   39.2550   48.8150   42.7680 O   0  0  0  0  0  0  0  0  0  0  0  0
   37.9970   49.4780   42.9570 C   0  0  0  0  0  0  0  0  0  0  0  0
   36.9740   49.2220   41.8390 C   0  0  0  0  0  0  0  0  0  0  0  0
   34.4680   47.1700   41.9320 N   0  0  0  0  0  0  0  0  0  0  0  0
   33.2840   46.7850   41.4280 C   0  0  0  0  0  0  0  0  0  0  0  0
   32.1770   46.6310   42.3670 C   0  0  0  0  0  0  0  0  0  0  0  0
   31.1040   45.7870   42.1520 C   0  0  0  0  0  0  0  0  0  0  0  0
   30.0650   45.6210   43.0050 N   0  0  0  0  0  0  0  0  0  0  0  0
   30.1010   46.3330   44.1340 C   0  0  0  0  0  0  0  0  0  0  0  0
   29.0710   46.1870   45.0110 N   0  0  0  0  0  0  0  0  0  0  0  0
   31.0790   47.1810   44.4600 N   0  0  0  0  0  0  0  0  0  0  0  0
   32.0920   47.3080   43.5690 C   0  0  0  0  0  0  0  0  0  0  0  0
   33.0370   46.5360   40.1430 N   0  0  0  0  0  0  0  0  0  0  0  0
   34.0960   46.6820   39.3120 C   0  0  0  0  0  0  0  0  0  0  0  0
  1  2  1  0
  2  3  2  0
  3  4  1  0
  4  5  1  0
  5  6  1  0
  6  7  1  0
  7  8  1  0
  8  9  1  0
  9 10  2  0
  9 11  1  0
 11 12  1  6
 11 13  1  0
  8 14  1  0
 14 15  1  0
  3 16  1  0
 16 17  1  0
 17 18  2  0
 18 19  1  0
 19 20  1  0
 20 21  1  0
 21 22  1  0
 22 23  1  0
 23 24  1  0
 18 25  1  0
 25 26  2  0
 26 27  1  0
 27 28  2  0
 28 29  1  0
 29 30  2  0
 30 31  1  0
 30 32  1  0
 32 33  2  0
 26 34  1  0
 34 35  2  0
 35  2  1  0
 15  5  1  0
 35 17  1  0
 24 19  1  0
 33 27  1  0
M  END
$$$$
