YRDJOOUTTZXUCV-UHFFFAOYSA-N_2JKH_m2
     RDKit          3D

 30 33  0  0  0  0  0  0  0  0999 V2000
   -2.7880   14.1290   17.6370 C   0  0  0  0  0  0  0  0  0  0  0  0
   -3.3040   13.2090   18.7390 C   0  0  1  0  0  0  0  0  0  0  0  0
   -3.9160   11.9440   18.1710 C   0  0  0  0  0  0  0  0  0  0  0  0
   -4.4130   11.0580   19.2240 N   0  0  0  0  0  0  0  0  0  0  0  0
   -5.4680   10.1280   18.8790 C   0  0  0  0  0  0  0  0  0  0  0  0
   -6.7970   10.5560   18.7190 C   0  0  0  0  0  0  0  0  0  0  0  0
   -7.8180    9.6670   18.3610 C   0  0  0  0  0  0  0  0  0  0  0  0
   -7.5330    8.3220   18.1560 C   0  0  0  0  0  0  0  0  0  0  0  0
   -6.2240    7.8680   18.3150 C   0  0  0  0  0  0  0  0  0  0  0  0
   -5.9080    6.4330   18.0790 C   0  0  0  0  0  0  0  0  0  0  0  0
   -4.8040    5.8910   18.4910 N   0  0  0  0  0  0  0  0  0  0  0  0
   -6.7820    5.6330   17.4220 N   0  0  0  0  0  0  0  0  0  0  0  0
   -5.2030    8.7640   18.6700 C   0  0  0  0  0  0  0  0  0  0  0  0
   -3.7770   11.0020   20.4770 C   0  0  0  0  0  0  0  0  0  0  0  0
   -4.1790   10.3050   21.4110 O   0  0  0  0  0  0  0  0  0  0  0  0
   -2.6560   11.8170   20.6520 N   0  0  0  0  0  0  0  0  0  0  0  0
   -1.9180   11.7240   21.9330 C   0  0  0  0  0  0  0  0  0  0  0  0
   -2.8200   11.7710   23.1740 C   0  0  0  0  0  0  0  0  0  0  0  0
   -1.9830   11.6620   24.4480 C   0  0  0  0  0  0  0  0  0  0  0  0
   -1.1760   10.4370   24.4300 N   0  0  0  0  0  0  0  0  0  0  0  0
   -0.5150   10.1580   25.7150 C   0  0  0  0  0  0  0  0  0  0  0  0
   -1.1930    9.1660   26.6360 C   0  0  0  0  0  0  0  0  0  0  0  0
   -2.3650    9.5140   27.3250 C   0  0  0  0  0  0  0  0  0  0  0  0
   -2.9910    8.5970   28.1720 C   0  0  0  0  0  0  0  0  0  0  0  0
   -2.4520    7.3240   28.3440 C   0  0  0  0  0  0  0  0  0  0  0  0
   -1.2850    6.9670   27.6720 C   0  0  0  0  0  0  0  0  0  0  0  0
   -0.6580    7.8830   26.8250 C   0  0  0  0  0  0  0  0  0  0  0  0
   -0.2550   10.4080   23.2890 C   0  0  0  0  0  0  0  0  0  0  0  0
   -1.0230   10.4810   21.9690 C   0  0  0  0  0  0  0  0  0  0  0  0
   -2.1870   12.7640   19.6530 C   0  0  0  0  0  0  0  0  0  0  0  0
  2  1  1  6
  2  3  1  0
  3  4  1  0
  4  5  1  0
  5  6  2  0
  6  7  1  0
  7  8  2  0
  8  9  1  0
  9 10  1  0
 10 11  2  3
 10 12  1  0
  9 13  2  0
  4 14  1  0
 14 15  2  0
 14 16  1  0
 16 17  1  0
 17 18  1  0
 18 19  1  0
 19 20  1  0
 20 21  1  0
 21 22  1  0
 22 23  2  0
 23 24  1  0
 24 25  2  0
 25 26  1  0
 26 27  2  0
 20 28  1  0
 28 29  1  0
 16 30  1  0
 30  2  1  0
 13  5  1  0
 29 17  1  0
 27 22  1  0
M  END
$$$$
