YTMFSMOKEUZXRX-UHFFFAOYSA-N_8BXH_m1
     RDKit          3D

 44 49  0  0  0  0  0  0  0  0999 V2000
  -17.9810   13.4230   20.1710 O   0  0  0  0  0  0  0  0  0  0  0  0
  -16.7830   13.7030   20.1340 C   0  0  0  0  0  0  0  0  0  0  0  0
  -15.7390   12.6680   20.5280 C   0  0  0  0  0  0  0  0  0  0  0  0
  -14.7680   12.3510   19.3920 C   0  0  0  0  0  0  0  0  0  0  0  0
  -13.3360   12.6670   19.7680 C   0  0  0  0  0  0  0  0  0  0  0  0
  -13.0240   12.1010   20.9550 F   0  0  0  0  0  0  0  0  0  0  0  0
  -13.1730   14.0040   19.9060 F   0  0  0  0  0  0  0  0  0  0  0  0
  -12.4420   12.2420   18.8590 F   0  0  0  0  0  0  0  0  0  0  0  0
  -16.3210   14.9590   19.7720 N   0  0  0  0  0  0  0  0  0  0  0  0
  -16.0150   15.3620   18.4030 C   0  0  0  0  0  0  0  0  0  0  0  0
  -14.9770   16.4470   18.3470 C   0  0  0  0  0  0  0  0  0  0  0  0
  -14.4290   17.0510   19.4210 C   0  0  0  0  0  0  0  0  0  0  0  0
  -13.3980   18.0910   19.3190 C   0  0  0  0  0  0  0  0  0  0  0  0
  -12.1060   17.7440   19.0880 C   0  0  0  0  0  0  0  0  0  0  0  0
  -11.0360   18.7200   18.9490 C   0  0  0  0  0  0  0  0  0  0  0  0
  -11.3380   20.0240   19.0320 C   0  0  0  0  0  0  0  0  0  0  0  0
  -12.6540   20.4120   19.2540 N   0  0  0  0  0  0  0  0  0  0  0  0
  -13.1430   21.6670   19.3570 N   0  0  0  0  0  0  0  0  0  0  0  0
  -14.4450   21.4670   19.5580 C   0  0  0  0  0  0  0  0  0  0  0  0
  -15.4350   22.3630   19.7180 N   0  0  0  0  0  0  0  0  0  0  0  0
  -16.8340   22.2630   19.6190 C   0  0  0  0  0  0  0  0  0  0  0  0
  -17.6260   22.9580   20.5530 C   0  0  0  0  0  0  0  0  0  0  0  0
  -19.0220   22.8990   20.5120 C   0  0  0  0  0  0  0  0  0  0  0  0
  -19.6430   22.1430   19.5190 C   0  0  0  0  0  0  0  0  0  0  0  0
  -21.1120   22.0620   19.4800 C   0  0  0  0  0  0  0  0  0  0  0  0
  -21.7220   23.0720   19.1400 O   0  0  0  0  0  0  0  0  0  0  0  0
  -21.7220   20.8600   19.8210 N   0  0  0  0  0  0  0  0  0  0  0  0
  -22.1860   19.8500   18.8650 C   0  0  0  0  0  0  0  0  0  0  0  0
  -23.6870   19.6350   19.0160 C   0  0  0  0  0  0  0  0  0  0  0  0
  -24.0460   19.2780   20.4560 C   0  0  0  0  0  0  0  0  0  0  0  0
  -23.4710   20.2990   21.4440 C   0  0  0  0  0  0  0  0  0  0  0  0
  -21.9610   20.5620   21.2460 C   0  0  1  0  0  0  0  0  0  0  0  0
  -20.9970   19.5050   21.7670 C   0  0  0  0  0  0  0  0  0  0  0  0
  -19.8290   19.1020   21.1110 C   0  0  0  0  0  0  0  0  0  0  0  0
  -19.0200   18.1080   21.6610 C   0  0  0  0  0  0  0  0  0  0  0  0
  -19.4050   17.5310   22.8580 C   0  0  0  0  0  0  0  0  0  0  0  0
  -20.5280   17.8710   23.5200 N   0  0  0  0  0  0  0  0  0  0  0  0
  -21.2970   18.8350   22.9560 C   0  0  0  0  0  0  0  0  0  0  0  0
  -18.8870   21.4400   18.5840 C   0  0  0  0  0  0  0  0  0  0  0  0
  -17.4910   21.5100   18.6350 C   0  0  0  0  0  0  0  0  0  0  0  0
  -14.8210   20.1550   19.6050 N   0  0  0  0  0  0  0  0  0  0  0  0
  -13.6970   19.4990   19.4040 C   0  0  0  0  0  0  0  0  0  0  0  0
  -14.8710   16.6590   20.8130 C   0  0  0  0  0  0  0  0  0  0  0  0
  -16.2520   16.0070   20.7900 C   0  0  0  0  0  0  0  0  0  0  0  0
  1  2  2  0
  2  3  1  0
  3  4  1  0
  4  5  1  0
  5  6  1  0
  5  7  1  0
  5  8  1  0
  2  9  1  0
  9 10  1  0
 10 11  1  0
 11 12  2  0
 12 13  1  0
 13 14  2  0
 14 15  1  0
 15 16  2  0
 16 17  1  0
 17 18  1  0
 18 19  2  0
 19 20  1  0
 20 21  1  0
 21 22  2  0
 22 23  1  0
 23 24  2  0
 24 25  1  0
 25 26  2  0
 25 27  1  0
 27 28  1  0
 28 29  1  0
 29 30  1  0
 30 31  1  0
 31 32  1  0
 32 33  1  6
 33 34  2  0
 34 35  1  0
 35 36  2  0
 36 37  1  0
 37 38  2  0
 24 39  1  0
 39 40  2  0
 19 41  1  0
 41 42  2  0
 12 43  1  0
 43 44  1  0
 44  9  1  0
 42 13  1  0
 42 17  1  0
 40 21  1  0
 32 27  1  0
 38 33  1  0
M  END
$$$$
