YZQDBWXUDUMPDB-UHFFFAOYSA-N_3RCD_m2
     RDKit          3D

 40 45  0  0  0  0  0  0  0  0999 V2000
   18.4580    3.9860   21.9500 C   0  0  0  0  0  0  0  0  0  0  0  0
   19.0360    3.4290   23.1250 O   0  0  0  0  0  0  0  0  0  0  0  0
   18.1760    2.9770   24.0880 C   0  0  0  0  0  0  0  0  0  0  0  0
   17.1650    3.8680   24.4290 C   0  0  0  0  0  0  0  0  0  0  0  0
   16.2210    3.5300   25.4020 C   0  0  0  0  0  0  0  0  0  0  0  0
   15.1870    4.3580   25.7700 O   0  0  0  0  0  0  0  0  0  0  0  0
   14.4860    5.1290   24.7750 C   0  0  2  0  0  0  0  0  0  0  0  0
   13.8360    6.3590   25.4130 C   0  0  0  0  0  0  0  0  0  0  0  0
   12.9880    7.1300   24.4000 C   0  0  0  0  0  0  0  0  0  0  0  0
   11.9390    6.2790   23.8310 N   0  0  0  0  0  0  0  0  0  0  0  0
   11.1180    7.0220   22.8740 C   0  0  0  0  0  0  0  0  0  0  0  0
   12.4980    5.0610   23.2080 C   0  0  0  0  0  0  0  0  0  0  0  0
   13.3990    4.2450   24.1480 C   0  0  0  0  0  0  0  0  0  0  0  0
   13.9770    3.2340   23.4450 F   0  0  0  0  0  0  0  0  0  0  0  0
   12.6480    3.6560   25.1170 F   0  0  0  0  0  0  0  0  0  0  0  0
   16.2770    2.2510   26.0500 C   0  0  0  0  0  0  0  0  0  0  0  0
   15.3950    1.7450   27.0460 C   0  0  0  0  0  0  0  0  0  0  0  0
   14.3270    2.5490   27.5030 N   0  0  0  0  0  0  0  0  0  0  0  0
   13.2890    2.3430   28.4270 C   0  0  0  0  0  0  0  0  0  0  0  0
   11.9340    2.3140   28.0870 C   0  0  0  0  0  0  0  0  0  0  0  0
   10.9490    2.1040   29.0560 C   0  0  0  0  0  0  0  0  0  0  0  0
   11.3150    1.9080   30.3870 C   0  0  0  0  0  0  0  0  0  0  0  0
   10.3340    1.7220   31.3280 O   0  0  0  0  0  0  0  0  0  0  0  0
    9.7730    0.4570   31.5140 C   0  0  0  0  0  0  0  0  0  0  0  0
   10.5270   -0.7620   31.2010 C   0  0  0  0  0  0  0  0  0  0  0  0
    9.9530   -1.9620   31.4080 C   0  0  0  0  0  0  0  0  0  0  0  0
    8.6600   -2.0160   31.9190 N   0  0  0  0  0  0  0  0  0  0  0  0
    7.8790   -3.1030   32.2120 C   0  0  0  0  0  0  0  0  0  0  0  0
    6.6980   -2.5870   32.6950 C   0  0  0  0  0  0  0  0  0  0  0  0
    6.7270   -1.2160   32.7080 N   0  0  0  0  0  0  0  0  0  0  0  0
    7.9130   -0.8880   32.2370 C   0  0  0  0  0  0  0  0  0  0  0  0
    8.5240    0.3780   32.0160 C   0  0  0  0  0  0  0  0  0  0  0  0
   12.6560    1.9670   30.7750 C   0  0  0  0  0  0  0  0  0  0  0  0
   13.0680    1.7740   32.2050 C   0  0  0  0  0  0  0  0  0  0  0  0
   13.6290    2.1650   29.7820 C   0  0  0  0  0  0  0  0  0  0  0  0
   15.5560    0.5200   27.5850 N   0  0  0  0  0  0  0  0  0  0  0  0
   16.5730   -0.2150   27.1420 C   0  0  0  0  0  0  0  0  0  0  0  0
   17.4600    0.1530   26.2160 N   0  0  0  0  0  0  0  0  0  0  0  0
   17.3070    1.3670   25.6850 C   0  0  0  0  0  0  0  0  0  0  0  0
   18.2340    1.7400   24.7210 C   0  0  0  0  0  0  0  0  0  0  0  0
  1  2  1  0
  2  3  1  0
  3  4  2  0
  4  5  1  0
  5  6  1  0
  7  6  1  1
  7  8  1  0
  8  9  1  0
  9 10  1  0
 10 11  1  0
 10 12  1  0
 12 13  1  0
 13 14  1  0
 13 15  1  0
  5 16  2  0
 16 17  1  0
 17 18  1  0
 18 19  1  0
 19 20  2  0
 20 21  1  0
 21 22  2  0
 22 23  1  0
 23 24  1  0
 24 25  1  0
 25 26  2  0
 26 27  1  0
 27 28  1  0
 28 29  2  0
 29 30  1  0
 30 31  2  0
 31 32  1  0
 22 33  1  0
 33 34  1  0
 33 35  2  0
 17 36  2  0
 36 37  1  0
 37 38  2  0
 38 39  1  0
 39 40  2  0
 40  3  1  0
 13  7  1  0
 39 16  1  0
 35 19  1  0
 32 24  2  0
 31 27  1  0
M  END
$$$$
