ZCGLEFCYWYQQOQ-GOOCMWNKSA-N_6N7A_m8
     RDKit          3D

 26 28  0  0  0  0  0  0  0  0999 V2000
    1.6330  -16.6740   16.5610 C   0  0  0  0  0  0  0  0  0  0  0  0
    1.3190  -16.2690   17.9940 C   0  0  0  0  0  0  0  0  0  0  0  0
    1.5280  -17.4360   18.9630 C   0  0  0  0  0  0  0  0  0  0  0  0
    2.6080  -17.1470   20.0220 C   0  0  2  0  0  0  0  0  0  0  0  0
    3.3070  -15.8030   19.8090 C   0  0  0  0  0  0  0  0  0  0  0  0
    3.6500  -18.2240   20.0710 N   0  0  0  0  0  0  0  0  0  0  0  0
    3.9740  -18.8840   18.7880 C   0  0  0  0  0  0  0  0  0  0  0  0
    3.6140  -19.2720   21.4190 S   0  0  0  0  0  0  0  0  0  0  0  0
    2.2960  -19.8690   21.4800 O   0  0  0  0  0  0  0  0  0  0  0  0
    4.1690  -18.5630   22.5510 O   0  0  0  0  0  0  0  0  0  0  0  0
    4.7680  -20.5410   20.8970 C   0  0  0  0  0  0  0  0  0  0  0  0
    4.7340  -21.7120   21.8620 C   0  0  1  0  0  0  0  0  0  0  0  0
    5.0670  -23.1220   21.3090 C   0  0  0  0  0  0  0  0  0  0  0  0
    5.7900  -23.4040   22.6540 C   0  0  1  0  0  0  0  0  0  0  0  0
    7.0130  -24.1560   22.5110 N   0  0  0  0  0  0  0  0  0  0  0  0
    7.7910  -23.9720   21.2920 C   0  0  0  0  0  0  0  0  0  0  0  0
    7.2780  -25.3280   23.2510 C   0  0  0  0  0  0  0  0  0  0  0  0
    8.3530  -25.3100   24.0930 N   0  0  0  0  0  0  0  0  0  0  0  0
    8.6400  -26.3940   24.8370 C   0  0  0  0  0  0  0  0  0  0  0  0
    7.9930  -27.5650   24.8700 N   0  0  0  0  0  0  0  0  0  0  0  0
    6.9600  -27.5700   24.0190 C   0  0  0  0  0  0  0  0  0  0  0  0
    6.1350  -28.6440   23.8320 N   0  0  0  0  0  0  0  0  0  0  0  0
    5.1960  -28.3480   22.8810 C   0  0  0  0  0  0  0  0  0  0  0  0
    5.4260  -27.0550   22.4610 C   0  0  0  0  0  0  0  0  0  0  0  0
    6.5390  -26.5360   23.1910 C   0  0  0  0  0  0  0  0  0  0  0  0
    5.9960  -21.8670   22.7470 C   0  0  0  0  0  0  0  0  0  0  0  0
  1  2  1  0
  2  3  1  0
  3  4  1  0
  4  5  1  6
  4  6  1  0
  6  7  1  0
  6  8  1  0
  8  9  2  0
  8 10  2  0
  8 11  1  0
 12 11  1  6
 12 13  1  0
 13 14  1  0
 14 15  1  6
 15 16  1  0
 15 17  1  0
 17 18  2  0
 18 19  1  0
 19 20  2  0
 20 21  1  0
 21 22  1  0
 22 23  1  0
 23 24  2  0
 24 25  1  0
 14 26  1  0
 26 12  1  0
 25 17  1  0
 25 21  2  0
M  END
$$$$
