ZCKGARDCKJFLRH-UHFFFAOYSA-N_3RCD_m7
     RDKit          3D

 24 26  0  0  0  0  0  0  0  0999 V2000
   19.4320    3.3210   20.1450 C   0  0  0  0  0  0  0  0  0  0  0  0
   18.6550    3.9180   21.3020 C   0  0  0  0  0  0  0  0  0  0  0  0
   18.6440    2.9660   22.3710 O   0  0  0  0  0  0  0  0  0  0  0  0
   18.6850    3.5190   23.6190 C   0  0  0  0  0  0  0  0  0  0  0  0
   19.3370    4.5150   23.9050 O   0  0  0  0  0  0  0  0  0  0  0  0
   17.8650    2.7850   24.5850 C   0  0  0  0  0  0  0  0  0  0  0  0
   18.1600    1.5290   25.0850 C   0  0  0  0  0  0  0  0  0  0  0  0
   17.1820    1.1560   25.9560 N   0  0  0  0  0  0  0  0  0  0  0  0
   17.1340   -0.0240   26.5840 N   0  0  0  0  0  0  0  0  0  0  0  0
   16.1110   -0.1530   27.3660 C   0  0  0  0  0  0  0  0  0  0  0  0
   15.1430    0.7820   27.6080 N   0  0  0  0  0  0  0  0  0  0  0  0
   15.1760    1.9380   27.0130 C   0  0  0  0  0  0  0  0  0  0  0  0
   14.2490    2.9220   27.2890 N   0  0  0  0  0  0  0  0  0  0  0  0
   13.2330    3.4620   26.4770 C   0  0  0  0  0  0  0  0  0  0  0  0
   12.5460    2.5960   25.6070 C   0  0  0  0  0  0  0  0  0  0  0  0
   11.5360    3.0640   24.7600 C   0  0  0  0  0  0  0  0  0  0  0  0
   11.1970    4.4120   24.7640 C   0  0  0  0  0  0  0  0  0  0  0  0
   11.8700    5.2810   25.6160 C   0  0  0  0  0  0  0  0  0  0  0  0
   11.4090    7.1160   25.6310 Br  0  0  0  0  0  0  0  0  0  0  0  0
   12.8780    4.8150   26.4640 C   0  0  0  0  0  0  0  0  0  0  0  0
   16.2630    2.1580   26.0810 C   0  0  0  0  0  0  0  0  0  0  0  0
   16.6180    3.1820   25.2030 C   0  0  0  0  0  0  0  0  0  0  0  0
   15.8820    4.4550   24.9060 C   0  0  0  0  0  0  0  0  0  0  0  0
   16.4170    5.6370   25.7000 C   0  0  0  0  0  0  0  0  0  0  0  0
  1  2  1  0
  2  3  1  0
  3  4  1  0
  4  5  2  0
  4  6  1  0
  6  7  2  0
  7  8  1  0
  8  9  1  0
  9 10  2  0
 10 11  1  0
 11 12  2  0
 12 13  1  0
 13 14  1  0
 14 15  2  0
 15 16  1  0
 16 17  2  0
 17 18  1  0
 18 19  1  0
 18 20  2  0
 12 21  1  0
 21 22  2  0
 22 23  1  0
 23 24  1  0
 22  6  1  0
 21  8  1  0
 20 14  1  0
M  END
$$$$
