ZERSZVIQLKNOSD-UHFFFAOYSA-N_5U3Q_m9
     RDKit          3D

 28 30  0  0  0  0  0  0  0  0999 V2000
   35.8470  -36.0980  107.3480 C   0  0  0  0  0  0  0  0  0  0  0  0
   35.7310  -37.4610  106.6760 C   0  0  0  0  0  0  0  0  0  0  0  0
   36.1100  -38.5680  107.6540 C   0  0  0  0  0  0  0  0  0  0  0  0
   36.6370  -37.4630  105.5690 O   0  0  0  0  0  0  0  0  0  0  0  0
   36.0370  -37.8480  104.3250 C   0  0  2  0  0  0  0  0  0  0  0  0
   36.6920  -39.1620  103.8720 C   0  0  0  0  0  0  0  0  0  0  0  0
   38.1940  -39.1390  104.0580 C   0  0  0  0  0  0  0  0  0  0  0  0
   38.7630  -39.4710  105.2920 C   0  0  0  0  0  0  0  0  0  0  0  0
   40.1530  -39.4750  105.4630 C   0  0  0  0  0  0  0  0  0  0  0  0
   40.9890  -39.1500  104.3960 C   0  0  0  0  0  0  0  0  0  0  0  0
   42.3550  -39.1160  104.4210 O   0  0  0  0  0  0  0  0  0  0  0  0
   43.0340  -40.3420  104.7180 C   0  0  0  0  0  0  0  0  0  0  0  0
   43.4740  -41.0290  103.4710 C   0  0  0  0  0  0  0  0  0  0  0  0
   44.1750  -42.1720  103.4840 N   0  0  0  0  0  0  0  0  0  0  0  0
   44.3640  -42.4460  102.1270 O   0  0  0  0  0  0  0  0  0  0  0  0
   43.7640  -41.4320  101.4330 C   0  0  0  0  0  0  0  0  0  0  0  0
   43.8260  -41.4910   99.9770 C   0  0  0  0  0  0  0  0  0  0  0  0
   42.8810  -40.7850   99.2160 C   0  0  0  0  0  0  0  0  0  0  0  0
   42.9140  -40.8220   97.8200 C   0  0  0  0  0  0  0  0  0  0  0  0
   43.8930  -41.5670   97.1660 C   0  0  0  0  0  0  0  0  0  0  0  0
   44.8380  -42.2740   97.9050 C   0  0  0  0  0  0  0  0  0  0  0  0
   44.8050  -42.2370   99.3020 C   0  0  0  0  0  0  0  0  0  0  0  0
   43.2140  -40.5280  102.2170 N   0  0  0  0  0  0  0  0  0  0  0  0
   40.4230  -38.8220  103.1620 C   0  0  0  0  0  0  0  0  0  0  0  0
   39.0370  -38.8180  102.9890 C   0  0  0  0  0  0  0  0  0  0  0  0
   36.2500  -36.7870  103.2410 C   0  0  0  0  0  0  0  0  0  0  0  0
   36.1810  -36.9360  102.0310 O   0  0  0  0  0  0  0  0  0  0  0  0
   36.5940  -35.5820  103.7440 O   0  0  0  0  0  0  0  0  0  0  0  0
  1  2  1  0
  2  3  1  0
  2  4  1  0
  4  5  1  0
  5  6  1  6
  6  7  1  0
  7  8  2  0
  8  9  1  0
  9 10  2  0
 10 11  1  0
 11 12  1  0
 12 13  1  0
 13 14  2  0
 14 15  1  0
 15 16  1  0
 16 17  1  0
 17 18  2  0
 18 19  1  0
 19 20  2  0
 20 21  1  0
 21 22  2  0
 16 23  2  0
 10 24  1  0
 24 25  2  0
  5 26  1  0
 26 27  2  0
 26 28  1  0
 25  7  1  0
 23 13  1  0
 22 17  1  0
M  END
$$$$
