ZKOHODJSCICEFD-UHFFFAOYSA-N_4BDS_m6
     RDKit          3D

 50 53  0  0  0  0  0  0  0  0999 V2000
  134.3300  118.0300   38.1210 C   0  0  0  0  0  0  0  0  0  0  0  0
  133.9290  117.1290   39.2820 C   0  0  0  0  0  0  0  0  0  0  0  0
  133.8930  115.6870   39.0020 N   0  0  0  0  0  0  0  0  0  0  0  0
  134.6090  115.2730   37.7850 C   0  0  0  0  0  0  0  0  0  0  0  0
  133.8260  114.2640   36.9280 C   0  0  0  0  0  0  0  0  0  0  0  0
  134.5050  112.8900   36.8250 C   0  0  0  0  0  0  0  0  0  0  0  0
  134.3040  111.9380   38.0110 C   0  0  0  0  0  0  0  0  0  0  0  0
  135.5780  111.5690   38.7700 C   0  0  0  0  0  0  0  0  0  0  0  0
  135.7560  110.0700   38.9130 C   0  0  0  0  0  0  0  0  0  0  0  0
  135.4860  109.5310   39.9900 O   0  0  0  0  0  0  0  0  0  0  0  0
  136.2090  109.3450   37.8150 N   0  0  0  0  0  0  0  0  0  0  0  0
  136.7020  109.9380   36.5700 C   0  0  0  0  0  0  0  0  0  0  0  0
  136.4070  109.0730   35.3400 C   0  0  0  0  0  0  0  0  0  0  0  0
  136.8540  107.6090   35.5230 C   0  0  0  0  0  0  0  0  0  0  0  0
  138.4090  107.4420   35.5370 C   0  0  0  0  0  0  0  0  0  0  0  0
  139.1470  108.7740   35.2760 C   0  0  0  0  0  0  0  0  0  0  0  0
  140.6640  108.6180   35.3900 C   0  0  0  0  0  0  0  0  0  0  0  0
  141.0150  108.0600   36.6870 N   0  0  0  0  0  0  0  0  0  0  0  0
  141.8830  108.7600   37.5140 C   0  0  0  0  0  0  0  0  0  0  0  0
  142.4560  109.7840   37.1380 O   0  0  0  0  0  0  0  0  0  0  0  0
  142.0960  108.2050   38.9160 C   0  0  0  0  0  0  0  0  0  0  0  0
  141.3770  108.9990   40.0090 C   0  0  0  0  0  0  0  0  0  0  0  0
  139.8650  109.0860   39.7710 C   0  0  0  0  0  0  0  0  0  0  0  0
  139.3400  110.5270   39.7160 C   0  0  0  0  0  0  0  0  0  0  0  0
  140.4380  111.6020   39.6930 C   0  0  0  0  0  0  0  0  0  0  0  0
  139.9730  112.9730   39.4430 N   0  0  0  0  0  0  0  0  0  0  0  0
  139.1040  113.0930   38.2560 C   0  0  0  0  0  0  0  0  0  0  0  0
  139.4660  112.2440   37.0400 C   0  0  0  0  0  0  0  0  0  0  0  0
  139.3400  113.5240   40.6630 C   0  0  0  0  0  0  0  0  0  0  0  0
  140.0390  114.7570   41.2120 C   0  0  0  0  0  0  0  0  0  0  0  0
  141.1930  114.5930   42.0050 C   0  0  0  0  0  0  0  0  0  0  0  0
  141.8430  115.6940   42.5550 C   0  0  0  0  0  0  0  0  0  0  0  0
  141.3500  116.9730   42.3190 C   0  0  0  0  0  0  0  0  0  0  0  0
  140.1990  117.1510   41.5470 C   0  0  0  0  0  0  0  0  0  0  0  0
  139.5330  116.0520   40.9950 C   0  0  0  0  0  0  0  0  0  0  0  0
  138.4060  116.1410   40.2210 O   0  0  0  0  0  0  0  0  0  0  0  0
  137.5330  117.2410   40.4470 C   0  0  0  0  0  0  0  0  0  0  0  0
  140.4120  106.7650   36.9750 C   0  0  0  0  0  0  0  0  0  0  0  0
  138.8890  106.8450   36.8840 C   0  0  0  0  0  0  0  0  0  0  0  0
  136.1440  107.0860   36.7860 C   0  0  0  0  0  0  0  0  0  0  0  0
  136.4770  107.9220   38.0160 C   0  0  0  0  0  0  0  0  0  0  0  0
  134.3050  114.9040   40.1860 C   0  0  0  0  0  0  0  0  0  0  0  0
  133.1400  114.3350   40.9760 C   0  0  0  0  0  0  0  0  0  0  0  0
  132.3770  113.2870   40.4330 C   0  0  0  0  0  0  0  0  0  0  0  0
  131.2970  112.7520   41.1320 C   0  0  0  0  0  0  0  0  0  0  0  0
  130.9720  113.2480   42.3930 C   0  0  0  0  0  0  0  0  0  0  0  0
  131.7230  114.2830   42.9530 C   0  0  0  0  0  0  0  0  0  0  0  0
  132.7930  114.8370   42.2410 C   0  0  0  0  0  0  0  0  0  0  0  0
  133.5840  115.8220   42.7720 O   0  0  0  0  0  0  0  0  0  0  0  0
  134.5690  115.3330   43.6800 C   0  0  0  0  0  0  0  0  0  0  0  0
  1  2  1  0
  2  3  1  0
  3  4  1  0
  4  5  1  0
  5  6  1  0
  6  7  1  0
  7  8  1  0
  8  9  1  0
  9 10  2  0
  9 11  1  0
 11 12  1  0
 12 13  1  0
 13 14  1  0
 14 15  1  0
 15 16  1  0
 16 17  1  0
 17 18  1  0
 18 19  1  0
 19 20  2  0
 19 21  1  0
 21 22  1  0
 22 23  1  0
 23 24  1  0
 24 25  1  0
 25 26  1  0
 26 27  1  0
 27 28  1  0
 26 29  1  0
 29 30  1  0
 30 31  2  0
 31 32  1  0
 32 33  2  0
 33 34  1  0
 34 35  2  0
 35 36  1  0
 36 37  1  0
 18 38  1  0
 38 39  1  0
 14 40  1  0
 40 41  1  0
  3 42  1  0
 42 43  1  0
 43 44  2  0
 44 45  1  0
 45 46  2  0
 46 47  1  0
 47 48  2  0
 48 49  1  0
 49 50  1  0
 41 11  1  0
 48 43  1  0
 39 15  1  0
 35 30  1  0
M  END
$$$$
