ZKOHODJSCICEFD-UHFFFAOYSA-N_4BDS_m3
     RDKit          3D

 50 53  0  0  0  0  0  0  0  0999 V2000
  131.3870  113.8890   42.9590 C   0  0  0  0  0  0  0  0  0  0  0  0
  131.9400  115.2220   43.4480 C   0  0  0  0  0  0  0  0  0  0  0  0
  133.1730  115.6910   42.7990 N   0  0  0  0  0  0  0  0  0  0  0  0
  134.4170  115.1520   43.3700 C   0  0  0  0  0  0  0  0  0  0  0  0
  135.1270  114.1450   42.4480 C   0  0  0  0  0  0  0  0  0  0  0  0
  135.0080  112.6900   42.9220 C   0  0  0  0  0  0  0  0  0  0  0  0
  134.5660  111.6630   41.8710 C   0  0  0  0  0  0  0  0  0  0  0  0
  135.5090  111.5040   40.6800 C   0  0  0  0  0  0  0  0  0  0  0  0
  136.5740  110.4510   40.9180 C   0  0  0  0  0  0  0  0  0  0  0  0
  137.4910  110.6900   41.7080 O   0  0  0  0  0  0  0  0  0  0  0  0
  136.4750  109.2390   40.2420 N   0  0  0  0  0  0  0  0  0  0  0  0
  135.5140  108.9550   39.1740 C   0  0  0  0  0  0  0  0  0  0  0  0
  135.0740  107.4880   39.1420 C   0  0  0  0  0  0  0  0  0  0  0  0
  136.2660  106.5100   39.1500 C   0  0  0  0  0  0  0  0  0  0  0  0
  137.0740  106.5220   37.8110 C   0  0  0  0  0  0  0  0  0  0  0  0
  136.7160  107.7310   36.9180 C   0  0  0  0  0  0  0  0  0  0  0  0
  137.5810  107.7860   35.6580 C   0  0  0  0  0  0  0  0  0  0  0  0
  138.9910  107.7890   36.0170 N   0  0  0  0  0  0  0  0  0  0  0  0
  139.7990  108.8320   35.5850 C   0  0  0  0  0  0  0  0  0  0  0  0
  139.3870  109.6960   34.8100 O   0  0  0  0  0  0  0  0  0  0  0  0
  141.2260  108.8620   36.1160 C   0  0  0  0  0  0  0  0  0  0  0  0
  141.4850  109.9810   37.1280 C   0  0  0  0  0  0  0  0  0  0  0  0
  140.8020  109.7200   38.4750 C   0  0  0  0  0  0  0  0  0  0  0  0
  139.6830  110.7200   38.7950 C   0  0  0  0  0  0  0  0  0  0  0  0
  140.0970  111.8530   39.7470 C   0  0  0  0  0  0  0  0  0  0  0  0
  139.5540  113.1790   39.4240 N   0  0  0  0  0  0  0  0  0  0  0  0
  138.6020  113.1670   38.2970 C   0  0  0  0  0  0  0  0  0  0  0  0
  137.2820  113.9080   38.4910 C   0  0  0  0  0  0  0  0  0  0  0  0
  138.9810  113.8010   40.6390 C   0  0  0  0  0  0  0  0  0  0  0  0
  139.8690  114.8690   41.2570 C   0  0  0  0  0  0  0  0  0  0  0  0
  140.9160  114.4740   42.1150 C   0  0  0  0  0  0  0  0  0  0  0  0
  141.7310  115.4220   42.7290 C   0  0  0  0  0  0  0  0  0  0  0  0
  141.5100  116.7750   42.4920 C   0  0  0  0  0  0  0  0  0  0  0  0
  140.4680  117.1820   41.6570 C   0  0  0  0  0  0  0  0  0  0  0  0
  139.6380  116.2400   41.0400 C   0  0  0  0  0  0  0  0  0  0  0  0
  138.6010  116.5550   40.2020 O   0  0  0  0  0  0  0  0  0  0  0  0
  137.4000  117.0410   40.7890 C   0  0  0  0  0  0  0  0  0  0  0  0
  139.4210  106.6390   36.8020 C   0  0  0  0  0  0  0  0  0  0  0  0
  138.5990  106.5210   38.0850 C   0  0  0  0  0  0  0  0  0  0  0  0
  137.0990  106.8410   40.4020 C   0  0  0  0  0  0  0  0  0  0  0  0
  137.5740  108.2880   40.4070 C   0  0  0  0  0  0  0  0  0  0  0  0
  133.1050  115.5120   41.3340 C   0  0  0  0  0  0  0  0  0  0  0  0
  133.4850  116.7550   40.5500 C   0  0  0  0  0  0  0  0  0  0  0  0
  133.4820  118.0080   41.1870 C   0  0  0  0  0  0  0  0  0  0  0  0
  133.8180  119.1670   40.4890 C   0  0  0  0  0  0  0  0  0  0  0  0
  134.1740  119.0870   39.1450 C   0  0  0  0  0  0  0  0  0  0  0  0
  134.1920  117.8510   38.4970 C   0  0  0  0  0  0  0  0  0  0  0  0
  133.8320  116.6910   39.1900 C   0  0  0  0  0  0  0  0  0  0  0  0
  133.8790  115.4530   38.6050 O   0  0  0  0  0  0  0  0  0  0  0  0
  134.2080  115.4910   37.2180 C   0  0  0  0  0  0  0  0  0  0  0  0
  1  2  1  0
  2  3  1  0
  3  4  1  0
  4  5  1  0
  5  6  1  0
  6  7  1  0
  7  8  1  0
  8  9  1  0
  9 10  2  0
  9 11  1  0
 11 12  1  0
 12 13  1  0
 13 14  1  0
 14 15  1  0
 15 16  1  0
 16 17  1  0
 17 18  1  0
 18 19  1  0
 19 20  2  0
 19 21  1  0
 21 22  1  0
 22 23  1  0
 23 24  1  0
 24 25  1  0
 25 26  1  0
 26 27  1  0
 27 28  1  0
 26 29  1  0
 29 30  1  0
 30 31  2  0
 31 32  1  0
 32 33  2  0
 33 34  1  0
 34 35  2  0
 35 36  1  0
 36 37  1  0
 18 38  1  0
 38 39  1  0
 14 40  1  0
 40 41  1  0
  3 42  1  0
 42 43  1  0
 43 44  2  0
 44 45  1  0
 45 46  2  0
 46 47  1  0
 47 48  2  0
 48 49  1  0
 49 50  1  0
 41 11  1  0
 48 43  1  0
 39 15  1  0
 35 30  1  0
M  END
$$$$
