ZPYXSSUHSIOZJR-IBGZPJMESA-N_5U3Q_m5
     RDKit          3D

 32 36  0  0  0  0  0  0  0  0999 V2000
   35.7380  -36.2310  101.6020 O   0  0  0  0  0  0  0  0  0  0  0  0
   36.7320  -36.4800  102.2630 C   0  0  0  0  0  0  0  0  0  0  0  0
   37.9570  -36.1530  101.8050 O   0  0  0  0  0  0  0  0  0  0  0  0
   36.7960  -37.1640  103.6000 C   0  0  0  0  0  0  0  0  0  0  0  0
   35.7560  -36.6090  104.5730 C   0  0  2  0  0  0  0  0  0  0  0  0
   36.0890  -35.1780  105.0590 C   0  0  0  0  0  0  0  0  0  0  0  0
   35.4350  -35.0230  106.4370 C   0  0  0  0  0  0  0  0  0  0  0  0
   35.4980  -36.4290  106.9440 C   0  0  0  0  0  0  0  0  0  0  0  0
   35.3550  -36.8580  108.2570 C   0  0  0  0  0  0  0  0  0  0  0  0
   35.4090  -38.2290  108.5200 C   0  0  0  0  0  0  0  0  0  0  0  0
   35.2910  -38.8130  109.7520 O   0  0  0  0  0  0  0  0  0  0  0  0
   36.0900  -38.2780  110.8050 C   0  0  0  0  0  0  0  0  0  0  0  0
   37.5110  -38.8150  110.6720 C   0  0  0  0  0  0  0  0  0  0  0  0
   38.5490  -37.6950  110.6510 C   0  0  0  0  0  0  0  0  0  0  0  0
   39.0760  -37.5280  109.3340 O   0  0  0  0  0  0  0  0  0  0  0  0
   40.4180  -37.6830  109.1330 C   0  0  0  0  0  0  0  0  0  0  0  0
   41.2690  -36.7920  108.4860 C   0  0  0  0  0  0  0  0  0  0  0  0
   42.6350  -37.0890  108.3420 C   0  0  0  0  0  0  0  0  0  0  0  0
   43.1790  -38.2820  108.8430 C   0  0  0  0  0  0  0  0  0  0  0  0
   44.6050  -38.6520  108.7180 C   0  0  0  0  0  0  0  0  0  0  0  0
   45.5720  -37.7830  108.4320 N   0  0  0  0  0  0  0  0  0  0  0  0
   46.7540  -38.4520  108.3870 C   0  0  0  0  0  0  0  0  0  0  0  0
   46.7090  -39.7920  108.6250 C   0  0  0  0  0  0  0  0  0  0  0  0
   45.1510  -40.3080  108.9260 S   0  0  0  0  0  0  0  0  0  0  0  0
   48.0220  -40.4580  108.5610 C   0  0  0  0  0  0  0  0  0  0  0  0
   48.8910  -39.3290  107.9090 C   0  0  0  0  0  0  0  0  0  0  0  0
   48.1270  -37.9770  108.1190 C   0  0  0  0  0  0  0  0  0  0  0  0
   42.3040  -39.1700  109.4880 C   0  0  0  0  0  0  0  0  0  0  0  0
   40.9440  -38.8740  109.6300 C   0  0  0  0  0  0  0  0  0  0  0  0
   35.5890  -39.1360  107.4620 C   0  0  0  0  0  0  0  0  0  0  0  0
   35.7200  -38.6970  106.1410 C   0  0  0  0  0  0  0  0  0  0  0  0
   35.6820  -37.3350  105.8920 C   0  0  0  0  0  0  0  0  0  0  0  0
  1  2  2  0
  2  3  1  0
  2  4  1  0
  5  4  1  6
  5  6  1  0
  6  7  1  0
  7  8  1  0
  8  9  2  0
  9 10  1  0
 10 11  1  0
 11 12  1  0
 12 13  1  0
 13 14  1  0
 14 15  1  0
 15 16  1  0
 16 17  2  0
 17 18  1  0
 18 19  2  0
 19 20  1  0
 20 21  2  0
 21 22  1  0
 22 23  2  0
 23 24  1  0
 23 25  1  0
 25 26  1  0
 26 27  1  0
 19 28  1  0
 28 29  2  0
 10 30  2  0
 30 31  1  0
 31 32  2  0
 32  5  1  0
 32  8  1  0
 29 16  1  0
 24 20  1  0
 27 22  1  0
M  END
$$$$
