ZSXKVVVADMTYQB-UHFFFAOYSA-N_4UDW_m8
     RDKit          3D

 30 31  0  0  0  0  0  0  0  0999 V2000
  123.4340  -14.4210  166.0230 N   0  0  0  0  0  0  0  0  0  0  0  0
  124.2520  -13.4460  165.7850 C   0  0  0  0  0  0  0  0  0  0  0  0
  124.0450  -12.2800  166.4430 N   0  0  0  0  0  0  0  0  0  0  0  0
  125.3820  -13.5780  164.8290 C   0  0  0  0  0  0  0  0  0  0  0  0
  126.0420  -12.4310  164.3730 C   0  0  0  0  0  0  0  0  0  0  0  0
  127.1110  -12.5490  163.4790 C   0  0  0  0  0  0  0  0  0  0  0  0
  127.5220  -13.8140  163.0380 C   0  0  0  0  0  0  0  0  0  0  0  0
  128.6520  -13.9930  162.0830 C   0  0  0  0  0  0  0  0  0  0  0  0
  128.4470  -13.9800  160.8740 O   0  0  0  0  0  0  0  0  0  0  0  0
  129.8950  -14.2050  162.6320 N   0  0  0  0  0  0  0  0  0  0  0  0
  131.0730  -14.3980  161.8090 C   0  0  0  0  0  0  0  0  0  0  0  0
  132.2780  -14.9250  162.5940 C   0  0  0  0  0  0  0  0  0  0  0  0
  131.9200  -16.1720  163.2040 O   0  0  0  0  0  0  0  0  0  0  0  0
  131.9150  -16.2300  164.5720 C   0  0  0  0  0  0  0  0  0  0  0  0
  132.9690  -15.8060  165.3850 C   0  0  0  0  0  0  0  0  0  0  0  0
  132.8640  -15.9100  166.7760 C   0  0  0  0  0  0  0  0  0  0  0  0
  133.9840  -15.4460  167.6350 C   0  0  0  0  0  0  0  0  0  0  0  0
  133.7850  -14.9230  168.8030 N   0  0  0  0  0  0  0  0  0  0  0  0
  135.2640  -15.5560  167.2070 N   0  0  0  0  0  0  0  0  0  0  0  0
  131.7150  -16.4450  167.3610 C   0  0  0  0  0  0  0  0  0  0  0  0
  130.6710  -16.8920  166.5510 C   0  0  0  0  0  0  0  0  0  0  0  0
  130.7610  -16.7910  165.1530 C   0  0  0  0  0  0  0  0  0  0  0  0
  129.6470  -17.3560  164.2970 C   0  0  0  0  0  0  0  0  0  0  0  0
  129.6960  -18.8520  164.1050 C   0  0  0  0  0  0  0  0  0  0  0  0
  130.6990  -19.5200  163.8890 O   0  0  0  0  0  0  0  0  0  0  0  0
  128.3340  -19.5380  164.1420 C   0  0  0  0  0  0  0  0  0  0  0  0
  128.0420  -20.5460  163.5280 O   0  0  0  0  0  0  0  0  0  0  0  0
  127.4750  -18.8860  164.9350 O   0  0  0  0  0  0  0  0  0  0  0  0
  126.8420  -14.9560  163.4820 C   0  0  0  0  0  0  0  0  0  0  0  0
  125.7770  -14.8410  164.3800 C   0  0  0  0  0  0  0  0  0  0  0  0
  1  2  2  3
  2  3  1  0
  2  4  1  0
  4  5  2  0
  5  6  1  0
  6  7  2  0
  7  8  1  0
  8  9  2  0
  8 10  1  0
 10 11  1  0
 11 12  1  0
 12 13  1  0
 13 14  1  0
 14 15  2  0
 15 16  1  0
 16 17  1  0
 17 18  2  3
 17 19  1  0
 16 20  2  0
 20 21  1  0
 21 22  2  0
 22 23  1  0
 23 24  1  0
 24 25  2  0
 24 26  1  0
 26 27  2  0
 26 28  1  0
  7 29  1  0
 29 30  2  0
 30  4  1  0
 22 14  1  0
M  END
$$$$
