ZZLLEVLMZDJINU-NDEPHWFRSA-N_9V8H_m9
     RDKit          3D

 40 44  0  0  0  0  0  0  0  0999 V2000
   -8.0890  -10.3470  -22.7730 C   0  0  0  0  0  0  0  0  0  0  0  0
   -8.5180   -9.1470  -22.0830 N   0  0  0  0  0  0  0  0  0  0  0  0
   -9.9230   -8.7490  -22.1690 C   0  0  0  0  0  0  0  0  0  0  0  0
  -10.4420   -8.7580  -23.6140 C   0  0  0  0  0  0  0  0  0  0  0  0
   -9.6740   -7.8340  -24.3930 O   0  0  0  0  0  0  0  0  0  0  0  0
   -9.3170   -8.2270  -25.6530 C   0  0  0  0  0  0  0  0  0  0  0  0
  -10.3660   -8.2560  -26.5740 C   0  0  0  0  0  0  0  0  0  0  0  0
  -10.1420   -8.6350  -27.9000 C   0  0  0  0  0  0  0  0  0  0  0  0
   -8.8580   -8.9900  -28.3250 C   0  0  0  0  0  0  0  0  0  0  0  0
   -8.6130   -9.4180  -29.7530 C   0  0  0  0  0  0  0  0  0  0  0  0
   -9.1000   -8.3850  -30.7890 C   0  0  2  0  0  0  0  0  0  0  0  0
   -9.9740   -9.0590  -31.7580 N   0  0  0  0  0  0  0  0  0  0  0  0
  -11.1640   -9.7170  -31.4750 C   0  0  0  0  0  0  0  0  0  0  0  0
  -11.2550  -11.1140  -31.4050 C   0  0  0  0  0  0  0  0  0  0  0  0
  -12.4690  -11.7600  -31.1470 C   0  0  0  0  0  0  0  0  0  0  0  0
  -13.6320  -11.0220  -30.9620 C   0  0  0  0  0  0  0  0  0  0  0  0
  -13.5850   -9.6340  -31.0520 C   0  0  0  0  0  0  0  0  0  0  0  0
  -12.3700   -8.9860  -31.3330 C   0  0  0  0  0  0  0  0  0  0  0  0
  -12.3550   -7.4980  -31.4370 C   0  0  0  0  0  0  0  0  0  0  0  0
  -12.2420   -6.9640  -32.5390 O   0  0  0  0  0  0  0  0  0  0  0  0
  -12.4880   -6.6360  -30.2320 C   0  0  0  0  0  0  0  0  0  0  0  0
  -13.6740   -6.5860  -29.4880 C   0  0  0  0  0  0  0  0  0  0  0  0
  -13.7620   -5.7480  -28.3740 C   0  0  0  0  0  0  0  0  0  0  0  0
  -12.6750   -4.9520  -28.0090 C   0  0  0  0  0  0  0  0  0  0  0  0
  -11.5000   -4.9870  -28.7580 C   0  0  0  0  0  0  0  0  0  0  0  0
  -11.4050   -5.8220  -29.8720 C   0  0  0  0  0  0  0  0  0  0  0  0
   -7.8950   -7.7660  -31.5020 C   0  0  0  0  0  0  0  0  0  0  0  0
   -6.8580   -8.3280  -31.8210 O   0  0  0  0  0  0  0  0  0  0  0  0
   -8.0700   -6.4590  -31.8050 O   0  0  0  0  0  0  0  0  0  0  0  0
   -7.8080   -8.9620  -27.3980 C   0  0  0  0  0  0  0  0  0  0  0  0
   -8.0360   -8.5850  -26.0700 C   0  0  0  0  0  0  0  0  0  0  0  0
   -7.6120   -8.2530  -21.6290 C   0  0  0  0  0  0  0  0  0  0  0  0
   -6.3350   -8.4490  -21.3640 N   0  0  0  0  0  0  0  0  0  0  0  0
   -5.8970   -7.2250  -20.9290 C   0  0  0  0  0  0  0  0  0  0  0  0
   -4.6360   -6.7960  -20.4940 C   0  0  0  0  0  0  0  0  0  0  0  0
   -4.4930   -5.4560  -20.1000 C   0  0  0  0  0  0  0  0  0  0  0  0
   -5.5790   -4.5710  -20.1400 C   0  0  0  0  0  0  0  0  0  0  0  0
   -6.8430   -4.9850  -20.5720 C   0  0  0  0  0  0  0  0  0  0  0  0
   -6.9410   -6.3180  -20.9510 C   0  0  0  0  0  0  0  0  0  0  0  0
   -8.0480   -6.9740  -21.3980 O   0  0  0  0  0  0  0  0  0  0  0  0
  1  2  1  0
  2  3  1  0
  3  4  1  0
  4  5  1  0
  5  6  1  0
  6  7  2  0
  7  8  1  0
  8  9  2  0
  9 10  1  0
 11 10  1  1
 11 12  1  0
 12 13  1  0
 13 14  2  0
 14 15  1  0
 15 16  2  0
 16 17  1  0
 17 18  2  0
 18 19  1  0
 19 20  2  0
 19 21  1  0
 21 22  2  0
 22 23  1  0
 23 24  2  0
 24 25  1  0
 25 26  2  0
 11 27  1  0
 27 28  2  0
 27 29  1  0
  9 30  1  0
 30 31  2  0
  2 32  1  0
 32 33  2  0
 33 34  1  0
 34 35  2  0
 35 36  1  0
 36 37  2  0
 37 38  1  0
 38 39  2  0
 39 40  1  0
 31  6  1  0
 40 32  1  0
 18 13  1  0
 26 21  1  0
 39 34  1  0
M  END
$$$$
