VWXMOLWJXUSYOA-UHFFFAOYSA-N
     RDKit          3D

 34 38  0  0  0  0  0  0  0  0999 V2000
  -22.1200   20.7330   21.6380 C   0  0  0  0  0  0  0  0  0  0  0  0
  -22.0180   19.4000   21.0450 N   0  0  0  0  0  0  0  0  0  0  0  0
  -21.6460   19.4680   19.6130 C   0  0  0  0  0  0  0  0  0  0  0  0
  -20.1840   19.8810   19.3180 C   0  0  0  0  0  0  0  0  0  0  0  0
  -19.2470   19.0630   20.1050 N   0  0  0  0  0  0  0  0  0  0  0  0
  -17.9050   19.1750   19.7440 C   0  0  0  0  0  0  0  0  0  0  0  0
  -17.4000   20.3670   19.2160 C   0  0  0  0  0  0  0  0  0  0  0  0
  -16.0660   20.4690   18.8130 C   0  0  0  0  0  0  0  0  0  0  0  0
  -15.1840   19.3880   18.9300 C   0  0  0  0  0  0  0  0  0  0  0  0
  -15.6750   18.2120   19.4980 C   0  0  0  0  0  0  0  0  0  0  0  0
  -17.0290   18.0820   19.8840 C   0  0  0  0  0  0  0  0  0  0  0  0
  -17.5280   16.7430   20.3780 C   0  0  0  0  0  0  0  0  0  0  0  0
  -16.4770   15.7840   20.4650 O   0  0  0  0  0  0  0  0  0  0  0  0
  -16.7370   14.6330   19.6670 C   0  0  0  0  0  0  0  0  0  0  0  0
  -15.4300   13.9320   19.5270 C   0  0  0  0  0  0  0  0  0  0  0  0
  -15.1260   12.7380   20.0660 C   0  0  0  0  0  0  0  0  0  0  0  0
  -13.8420   11.9940   19.8250 C   0  0  0  0  0  0  0  0  0  0  0  0
  -12.7060   12.7760   20.1800 O   0  0  0  0  0  0  0  0  0  0  0  0
  -11.7240   12.8240   19.1430 C   0  0  0  0  0  0  0  0  0  0  0  0
  -10.8030   13.9820   19.4260 C   0  0  0  0  0  0  0  0  0  0  0  0
   -9.4710   13.7380   19.7770 C   0  0  0  0  0  0  0  0  0  0  0  0
   -8.6200   14.7970   20.0720 C   0  0  0  0  0  0  0  0  0  0  0  0
   -9.0950   16.1090   20.0170 C   0  0  0  0  0  0  0  0  0  0  0  0
  -10.4290   16.4000   19.6640 C   0  0  0  0  0  0  0  0  0  0  0  0
  -11.2720   15.3100   19.3830 C   0  0  0  0  0  0  0  0  0  0  0  0
  -10.9200   17.7970   19.6070 C   0  0  0  0  0  0  0  0  0  0  0  0
  -10.2230   18.8340   20.2020 C   0  0  0  0  0  0  0  0  0  0  0  0
  -10.8220   20.0650   20.1750 C   0  0  0  0  0  0  0  0  0  0  0  0
  -12.0180   20.2860   19.6140 N   0  0  0  0  0  0  0  0  0  0  0  0
  -12.6200   19.2460   19.0120 C   0  0  0  0  0  0  0  0  0  0  0  0
  -12.1010   18.0070   18.9770 N   0  0  0  0  0  0  0  0  0  0  0  0
  -13.8710   19.5540   18.4910 N   0  0  0  0  0  0  0  0  0  0  0  0
  -19.5440   18.9520   21.5400 C   0  0  0  0  0  0  0  0  0  0  0  0
  -21.0260   18.5610   21.7580 C   0  0  0  0  0  0  0  0  0  0  0  0
  1  2  1  0
  2  3  1  0
  3  4  1  0
  4  5  1  0
  5  6  1  0
  6  7  2  0
  7  8  1  0
  8  9  2  0
  9 10  1  0
 10 11  2  0
 11 12  1  0
 12 13  1  0
 13 14  1  0
 14 15  1  0
 15 16  2  3
 16 17  1  0
 17 18  1  0
 18 19  1  0
 19 20  1  0
 20 21  2  0
 21 22  1  0
 22 23  2  0
 23 24  1  0
 24 25  2  0
 24 26  1  0
 26 27  2  0
 27 28  1  0
 28 29  2  0
 29 30  1  0
 30 31  2  0
 30 32  1  0
  5 33  1  0
 33 34  1  0
 34  2  1  0
 11  6  1  0
 25 20  1  0
 31 26  1  0
 32  9  1  0
M  END
$$$$
