SCZBXBBBMCBNSK-SIBCGJTDSA-N
     RDKit          3D

 29 31  0  0  0  0  0  0  0  0999 V2000
  134.6220  -16.1340  168.6280 N   0  0  0  0  0  0  0  0  0  0  0  0
  134.7210  -15.9320  167.3520 C   0  0  0  0  0  0  0  0  0  0  0  0
  135.9200  -15.5640  166.8310 N   0  0  0  0  0  0  0  0  0  0  0  0
  133.5130  -16.1220  166.4940 C   0  0  0  0  0  0  0  0  0  0  0  0
  133.6120  -16.1710  165.1010 C   0  0  0  0  0  0  0  0  0  0  0  0
  132.4600  -16.3370  164.3210 C   0  0  0  0  0  0  0  0  0  0  0  0
  131.2000  -16.4500  164.9220 C   0  0  0  0  0  0  0  0  0  0  0  0
  129.9800  -16.5290  164.1110 C   0  0  0  0  0  0  0  0  0  0  0  0
  129.4310  -17.6380  163.5800 C   0  0  0  0  0  0  0  0  0  0  0  0
  128.2980  -17.5960  162.5890 C   0  0  0  0  0  0  0  0  0  0  0  0
  126.9010  -17.3440  163.1720 C   0  0  0  0  0  0  0  0  0  0  0  0
  126.2500  -18.5990  163.8190 C   0  0  0  0  0  0  0  0  0  0  0  0
  127.2000  -19.7760  164.0590 C   0  0  0  0  0  0  0  0  0  0  0  0
  128.0520  -19.7440  165.3300 C   0  0  0  0  0  0  0  0  0  0  0  0
  129.5440  -19.6580  165.1080 C   0  0  0  0  0  0  0  0  0  0  0  0
  130.3970  -20.1300  166.0400 C   0  0  0  0  0  0  0  0  0  0  0  0
  131.8530  -19.9740  166.1040 C   0  0  0  0  0  0  0  0  0  0  0  0
  132.4270  -19.7500  167.3620 C   0  0  0  0  0  0  0  0  0  0  0  0
  133.7980  -19.5230  167.4850 C   0  0  0  0  0  0  0  0  0  0  0  0
  134.6090  -19.5140  166.3480 C   0  0  0  0  0  0  0  0  0  0  0  0
  136.0450  -19.1430  166.4820 C   0  0  0  0  0  0  0  0  0  0  0  0
  136.5250  -18.9020  167.6610 N   0  0  0  0  0  0  0  0  0  0  0  0
  136.8410  -19.0530  165.3840 N   0  0  0  0  0  0  0  0  0  0  0  0
  134.0550  -19.7960  165.0970 C   0  0  0  0  0  0  0  0  0  0  0  0
  132.6830  -20.0440  164.9810 C   0  0  0  0  0  0  0  0  0  0  0  0
  130.0000  -18.9860  163.8480 C   0  0  0  0  0  0  0  0  0  0  0  0
  130.6770  -19.5470  162.9940 O   0  0  0  0  0  0  0  0  0  0  0  0
  131.1020  -16.3830  166.3150 C   0  0  0  0  0  0  0  0  0  0  0  0
  132.2520  -16.2230  167.0940 C   0  0  0  0  0  0  0  0  0  0  0  0
  1  2  2  0
  2  3  1  0
  2  4  1  0
  4  5  2  0
  5  6  1  0
  6  7  2  0
  7  8  1  0
  8  9  2  0
  9 10  1  0
 10 11  1  0
 11 12  1  0
 12 13  1  0
 13 14  1  0
 14 15  1  0
 15 16  2  0
 16 17  1  0
 17 18  2  0
 18 19  1  0
 19 20  2  0
 20 21  1  0
 21 22  2  0
 21 23  1  0
 20 24  1  0
 24 25  2  0
 15 26  1  0
 26 27  2  0
  7 28  1  0
 28 29  2  0
 29  4  1  0
 26  9  1  0
 25 17  1  0
M  END
$$$$
