SCZBXBBBMCBNSK-SIBCGJTDSA-N
     RDKit          3D

 29 31  0  0  0  0  0  0  0  0999 V2000
  129.9180  -14.0270  160.6770 N   0  0  0  0  0  0  0  0  0  0  0  0
  129.7730  -13.9600  161.9630 C   0  0  0  0  0  0  0  0  0  0  0  0
  128.7120  -13.2820  162.4750 N   0  0  0  0  0  0  0  0  0  0  0  0
  130.7730  -14.6390  162.8410 C   0  0  0  0  0  0  0  0  0  0  0  0
  130.5540  -14.7840  164.2140 C   0  0  0  0  0  0  0  0  0  0  0  0
  131.5150  -15.4140  165.0140 C   0  0  0  0  0  0  0  0  0  0  0  0
  132.7050  -15.8990  164.4550 C   0  0  0  0  0  0  0  0  0  0  0  0
  133.7570  -16.4740  165.3000 C   0  0  0  0  0  0  0  0  0  0  0  0
  133.7390  -17.6730  165.9130 C   0  0  0  0  0  0  0  0  0  0  0  0
  134.7710  -18.0900  166.9270 C   0  0  0  0  0  0  0  0  0  0  0  0
  136.1660  -18.4130  166.3760 C   0  0  0  0  0  0  0  0  0  0  0  0
  136.2870  -19.8300  165.7670 C   0  0  0  0  0  0  0  0  0  0  0  0
  134.9510  -20.5350  165.5190 C   0  0  0  0  0  0  0  0  0  0  0  0
  134.1460  -20.1040  164.2910 C   0  0  0  0  0  0  0  0  0  0  0  0
  132.7540  -19.5900  164.5770 C   0  0  0  0  0  0  0  0  0  0  0  0
  131.7190  -19.9640  163.7970 C   0  0  0  0  0  0  0  0  0  0  0  0
  130.3500  -19.4400  163.7870 C   0  0  0  0  0  0  0  0  0  0  0  0
  129.3300  -20.2830  164.2450 C   0  0  0  0  0  0  0  0  0  0  0  0
  127.9970  -19.8730  164.1970 C   0  0  0  0  0  0  0  0  0  0  0  0
  127.6710  -18.6150  163.6860 C   0  0  0  0  0  0  0  0  0  0  0  0
  126.2390  -18.2460  163.5220 C   0  0  0  0  0  0  0  0  0  0  0  0
  125.4930  -18.9500  162.7290 N   0  0  0  0  0  0  0  0  0  0  0  0
  125.7190  -17.1810  164.1890 N   0  0  0  0  0  0  0  0  0  0  0  0
  128.6870  -17.7450  163.2820 C   0  0  0  0  0  0  0  0  0  0  0  0
  130.0230  -18.1520  163.3520 C   0  0  0  0  0  0  0  0  0  0  0  0
  132.6120  -18.6250  165.7150 C   0  0  0  0  0  0  0  0  0  0  0  0
  131.7110  -18.6900  166.5440 O   0  0  0  0  0  0  0  0  0  0  0  0
  132.9290  -15.7370  163.0850 C   0  0  0  0  0  0  0  0  0  0  0  0
  131.9670  -15.1130  162.2840 C   0  0  0  0  0  0  0  0  0  0  0  0
  1  2  2  0
  2  3  1  0
  2  4  1  0
  4  5  2  0
  5  6  1  0
  6  7  2  0
  7  8  1  0
  8  9  2  0
  9 10  1  0
 10 11  1  0
 11 12  1  0
 12 13  1  0
 13 14  1  0
 14 15  1  0
 15 16  2  0
 16 17  1  0
 17 18  2  0
 18 19  1  0
 19 20  2  0
 20 21  1  0
 21 22  2  0
 21 23  1  0
 20 24  1  0
 24 25  2  0
 15 26  1  0
 26 27  2  0
  7 28  1  0
 28 29  2  0
 29  4  1  0
 26  9  1  0
 25 17  1  0
M  END
$$$$
