WCYNPWNUKWZKPY-NUHJPDEHSA-N
     RDKit          3D

 25 28  0  0  0  0  0  0  0  0999 V2000
  -12.0780   16.4030   20.5910 N   0  0  0  0  0  0  0  0  0  0  0  0
  -13.1750   16.0430   20.4800 C   0  0  0  0  0  0  0  0  0  0  0  0
  -14.5640   15.6120   20.2880 C   0  0  2  0  0  0  0  0  0  0  0  0
  -14.6930   14.0900   20.2270 C   0  0  0  0  0  0  0  0  0  0  0  0
  -15.9540   13.8760   19.4080 C   0  0  0  0  0  0  0  0  0  0  0  0
  -15.8180   14.9010   18.2910 C   0  0  0  0  0  0  0  0  0  0  0  0
  -15.1120   16.1110   18.9360 C   0  0  1  0  0  0  0  0  0  0  0  0
  -15.9760   17.2670   19.1220 N   0  0  0  0  0  0  0  0  0  0  0  0
  -17.3020   17.0690   19.3170 N   0  0  0  0  0  0  0  0  0  0  0  0
  -17.8250   18.2930   19.4740 C   0  0  0  0  0  0  0  0  0  0  0  0
  -19.1230   18.6300   19.6800 N   0  0  0  0  0  0  0  0  0  0  0  0
  -19.8880   18.7340   20.8620 C   0  0  0  0  0  0  0  0  0  0  0  0
  -19.4860   18.0090   21.9890 C   0  0  0  0  0  0  0  0  0  0  0  0
  -20.2310   18.0980   23.1560 C   0  0  0  0  0  0  0  0  0  0  0  0
  -21.3400   18.8510   23.2800 N   0  0  0  0  0  0  0  0  0  0  0  0
  -21.7120   19.5410   22.1840 C   0  0  0  0  0  0  0  0  0  0  0  0
  -22.8140   20.3000   22.2790 F   0  0  0  0  0  0  0  0  0  0  0  0
  -21.0340   19.5170   20.9770 C   0  0  0  0  0  0  0  0  0  0  0  0
  -16.8100   19.2680   19.4150 C   0  0  0  0  0  0  0  0  0  0  0  0
  -16.7880   20.7070   19.5370 C   0  0  0  0  0  0  0  0  0  0  0  0
  -17.7930   21.3860   19.7210 O   0  0  0  0  0  0  0  0  0  0  0  0
  -15.5100   21.2530   19.4300 N   0  0  0  0  0  0  0  0  0  0  0  0
  -14.3490   20.5160   19.2290 C   0  0  0  0  0  0  0  0  0  0  0  0
  -14.3590   19.1740   19.1090 C   0  0  0  0  0  0  0  0  0  0  0  0
  -15.6360   18.5820   19.2040 C   0  0  0  0  0  0  0  0  0  0  0  0
  1  2  3  0
  3  2  1  6
  3  4  1  0
  4  5  1  0
  5  6  1  0
  6  7  1  0
  7  8  1  1
  8  9  1  0
  9 10  2  0
 10 11  1  0
 11 12  1  0
 12 13  2  0
 13 14  1  0
 14 15  2  0
 15 16  1  0
 16 17  1  0
 16 18  2  0
 10 19  1  0
 19 20  1  0
 20 21  2  0
 20 22  1  0
 22 23  1  0
 23 24  2  0
 24 25  1  0
  7  3  1  0
 25  8  1  0
 18 12  1  0
 25 19  2  0
M  END
$$$$
