
 OpenBabel08282605593D

 31 34  0  0  0  0  0  0  0  0999 V2000
   15.8750   38.3720  122.7960 C   0  0  0  0  0  0  0  0  0  0  0  0
   15.1500   37.7860  121.7410 C   0  0  0  0  0  0  0  0  0  0  0  0
   14.1050   38.4670  121.1270 C   0  0  0  0  0  0  0  0  0  0  0  0
   13.7460   39.7490  121.5430 C   0  0  0  0  0  0  0  0  0  0  0  0
   14.4740   40.3430  122.5880 C   0  0  0  0  0  0  0  0  0  0  0  0
   15.5360   39.6830  123.2220 C   0  0  0  0  0  0  0  0  0  0  0  0
   16.0470   40.5910  124.2000 C   0  0  0  0  0  0  0  0  0  0  0  0
   15.2990   41.7420  124.1520 C   0  0  0  0  0  0  0  0  0  0  0  0
   14.3500   41.5870  123.1740 N   0  0  0  0  0  0  0  0  0  0  0  0
   16.9630   37.6500  123.4400 C   0  0  0  0  0  0  0  0  0  0  0  0
   18.0190   36.1210  124.4360 C   0  0  0  0  0  0  0  0  0  0  0  0
   16.8080   36.4030  124.0170 N   0  0  0  0  0  0  0  0  0  0  0  0
   18.9220   37.1030  124.1580 O   0  0  0  0  0  0  0  0  0  0  0  0
   18.2290   38.1060  123.4880 N   0  0  0  0  0  0  0  0  0  0  0  0
   18.5140   34.9350  125.1070 C   0  0  0  0  0  0  0  0  0  0  0  0
   19.3260   32.6880  126.4900 C   0  0  0  0  0  0  0  0  0  0  0  0
   18.3070   33.4170  126.9990 N   0  0  0  0  0  0  0  0  0  0  0  0
   19.9880   33.0300  125.3110 C   0  0  0  0  0  0  0  0  0  0  0  0
   17.9300   34.5190  126.3000 C   0  0  0  0  0  0  0  0  0  0  0  0
   19.5690   34.1640  124.6120 C   0  0  0  0  0  0  0  0  0  0  0  0
   21.2940   32.0980  124.6810 Cl  0  0  0  0  0  0  0  0  0  0  0  0
   19.7550   31.5650  127.1690 O   0  0  0  0  0  0  0  0  0  0  0  0
   18.8790   31.0840  128.1950 C   0  0  0  0  0  0  0  0  0  0  0  0
   18.1790   29.8520  127.6260 C   0  0  0  0  0  0  0  0  0  0  0  0
   19.6920   30.7010  129.4260 C   0  0  0  0  0  0  0  0  0  0  0  0
   13.3410   42.5950  122.8640 C   0  0  0  0  0  0  0  0  0  0  0  0
   13.9100   43.8300  122.1590 C   0  0  0  0  0  0  0  0  0  0  0  0
   14.4990   43.5340  120.7800 C   0  0  0  0  0  0  0  0  0  0  0  0
   13.4540   43.4020  119.6680 C   0  0  0  0  0  0  0  0  0  0  0  0
   12.9290   44.4940  119.3090 O   0  0  0  0  0  0  0  0  0  0  0  0
   13.2570   42.2320  119.2320 O   0  0  0  0  0  0  0  0  0  0  0  0
  1  6  1  0  0  0  0
  1 10  1  0  0  0  0
  2  1  2  0  0  0  0
  3  4  2  0  0  0  0
  3  2  1  0  0  0  0
  4  5  1  0  0  0  0
  5  9  1  0  0  0  0
  5  6  2  0  0  0  0
  6  7  1  0  0  0  0
  8  7  2  0  0  0  0
  9  8  1  0  0  0  0
 10 14  2  0  0  0  0
 10 12  1  0  0  0  0
 11 15  1  0  0  0  0
 12 11  2  0  0  0  0
 13 11  1  0  0  0  0
 14 13  1  0  0  0  0
 15 19  1  0  0  0  0
 16 17  1  0  0  0  0
 16 22  1  0  0  0  0
 18 16  2  0  0  0  0
 19 17  2  0  0  0  0
 20 15  2  0  0  0  0
 20 18  1  0  0  0  0
 21 18  1  0  0  0  0
 22 23  1  0  0  0  0
 23 25  1  0  0  0  0
 24 23  1  0  0  0  0
 26  9  1  0  0  0  0
 27 26  1  0  0  0  0
 28 27  1  0  0  0  0
 29 28  1  0  0  0  0
 30 29  1  0  0  0  0
 31 29  2  0  0  0  0
M  END
>  <minimizedAffinity>
-8.98983288

>  <CNNscore>
0.709416926

>  <CNNaffinity>
6.7900548

$$$$

 OpenBabel08282605593D

 31 34  0  0  0  0  0  0  0  0999 V2000
   14.3260   37.6910  124.9370 C   0  0  0  0  0  0  0  0  0  0  0  0
   13.1560   37.3620  124.2270 C   0  0  0  0  0  0  0  0  0  0  0  0
   12.5010   38.3100  123.4500 C   0  0  0  0  0  0  0  0  0  0  0  0
   12.9850   39.6150  123.3560 C   0  0  0  0  0  0  0  0  0  0  0  0
   14.1590   39.9460  124.0530 C   0  0  0  0  0  0  0  0  0  0  0  0
   14.8450   39.0090  124.8400 C   0  0  0  0  0  0  0  0  0  0  0  0
   15.9880   39.6860  125.3660 C   0  0  0  0  0  0  0  0  0  0  0  0
   15.9670   40.9820  124.9150 C   0  0  0  0  0  0  0  0  0  0  0  0
   14.8600   41.1340  124.1200 N   0  0  0  0  0  0  0  0  0  0  0  0
   15.0020   36.6940  125.7550 C   0  0  0  0  0  0  0  0  0  0  0  0
   16.3890   35.2250  126.3560 C   0  0  0  0  0  0  0  0  0  0  0  0
   16.0840   35.9570  125.3100 N   0  0  0  0  0  0  0  0  0  0  0  0
   15.5760   35.4550  127.4240 O   0  0  0  0  0  0  0  0  0  0  0  0
   14.6680   36.4340  127.0330 N   0  0  0  0  0  0  0  0  0  0  0  0
   17.4550   34.2580  126.5290 C   0  0  0  0  0  0  0  0  0  0  0  0
   19.4120   32.3690  127.0020 C   0  0  0  0  0  0  0  0  0  0  0  0
   18.5070   32.6080  127.9780 N   0  0  0  0  0  0  0  0  0  0  0  0
   19.4060   33.0420  125.7810 C   0  0  0  0  0  0  0  0  0  0  0  0
   17.5570   33.5440  127.7200 C   0  0  0  0  0  0  0  0  0  0  0  0
   18.4110   33.9920  125.5440 C   0  0  0  0  0  0  0  0  0  0  0  0
   20.5750   32.7350  124.5510 Cl  0  0  0  0  0  0  0  0  0  0  0  0
   20.4050   31.4340  127.2190 O   0  0  0  0  0  0  0  0  0  0  0  0
   19.9920   30.2250  127.8670 C   0  0  0  0  0  0  0  0  0  0  0  0
   20.0790   30.4860  129.3690 C   0  0  0  0  0  0  0  0  0  0  0  0
   18.5550   29.8980  127.4760 C   0  0  0  0  0  0  0  0  0  0  0  0
   14.4840   42.3980  123.4950 C   0  0  0  0  0  0  0  0  0  0  0  0
   13.2430   43.0420  124.1220 C   0  0  0  0  0  0  0  0  0  0  0  0
   13.3620   44.5540  124.3070 C   0  0  0  0  0  0  0  0  0  0  0  0
   13.5080   44.9960  125.7660 C   0  0  0  0  0  0  0  0  0  0  0  0
   12.4170   45.1050  126.3940 O   0  0  0  0  0  0  0  0  0  0  0  0
   14.6920   45.1800  126.1710 O   0  0  0  0  0  0  0  0  0  0  0  0
  1 10  1  0  0  0  0
  2  1  2  0  0  0  0
  3  2  1  0  0  0  0
  4  3  2  0  0  0  0
  4  5  1  0  0  0  0
  5  9  1  0  0  0  0
  5  6  2  0  0  0  0
  6  1  1  0  0  0  0
  6  7  1  0  0  0  0
  8  7  2  0  0  0  0
  9  8  1  0  0  0  0
 10 14  2  0  0  0  0
 11 15  1  0  0  0  0
 11 13  1  0  0  0  0
 12 10  1  0  0  0  0
 12 11  2  0  0  0  0
 14 13  1  0  0  0  0
 15 19  1  0  0  0  0
 16 22  1  0  0  0  0
 16 17  1  0  0  0  0
 18 16  2  0  0  0  0
 19 17  2  0  0  0  0
 20 18  1  0  0  0  0
 20 15  2  0  0  0  0
 21 18  1  0  0  0  0
 22 23  1  0  0  0  0
 23 24  1  0  0  0  0
 25 23  1  0  0  0  0
 26  9  1  0  0  0  0
 26 27  1  0  0  0  0
 27 28  1  0  0  0  0
 28 29  1  0  0  0  0
 29 31  2  0  0  0  0
 29 30  1  0  0  0  0
M  END
>  <minimizedAffinity>
-7.97797155

>  <CNNscore>
0.671316326

>  <CNNaffinity>
7.17731047

$$$$

 OpenBabel08282605593D

 31 34  0  0  0  0  0  0  0  0999 V2000
   14.3740   37.6730  125.0000 C   0  0  0  0  0  0  0  0  0  0  0  0
   13.2080   37.3510  124.2780 C   0  0  0  0  0  0  0  0  0  0  0  0
   12.5560   38.3080  123.5090 C   0  0  0  0  0  0  0  0  0  0  0  0
   13.0380   39.6150  123.4350 C   0  0  0  0  0  0  0  0  0  0  0  0
   14.2080   39.9390  124.1440 C   0  0  0  0  0  0  0  0  0  0  0  0
   14.8900   38.9930  124.9230 C   0  0  0  0  0  0  0  0  0  0  0  0
   16.0300   39.6650  125.4630 C   0  0  0  0  0  0  0  0  0  0  0  0
   16.0090   40.9670  125.0290 C   0  0  0  0  0  0  0  0  0  0  0  0
   14.9060   41.1270  124.2290 N   0  0  0  0  0  0  0  0  0  0  0  0
   15.0470   36.6670  125.8090 C   0  0  0  0  0  0  0  0  0  0  0  0
   16.4280   35.1860  126.3950 C   0  0  0  0  0  0  0  0  0  0  0  0
   16.1240   35.9270  125.3550 N   0  0  0  0  0  0  0  0  0  0  0  0
   15.6190   35.4120  127.4670 O   0  0  0  0  0  0  0  0  0  0  0  0
   14.7150   36.4000  127.0850 N   0  0  0  0  0  0  0  0  0  0  0  0
   17.4900   34.2120  126.5580 C   0  0  0  0  0  0  0  0  0  0  0  0
   19.4350   32.3060  127.0090 C   0  0  0  0  0  0  0  0  0  0  0  0
   18.5120   32.5180  127.9750 N   0  0  0  0  0  0  0  0  0  0  0  0
   19.4520   33.0160  125.8090 C   0  0  0  0  0  0  0  0  0  0  0  0
   17.5690   33.4630  127.7290 C   0  0  0  0  0  0  0  0  0  0  0  0
   18.4630   33.9750  125.5830 C   0  0  0  0  0  0  0  0  0  0  0  0
   20.6420   32.7440  124.5920 Cl  0  0  0  0  0  0  0  0  0  0  0  0
   20.4220   31.3640  127.2160 O   0  0  0  0  0  0  0  0  0  0  0  0
   20.0160   30.1770  127.9070 C   0  0  0  0  0  0  0  0  0  0  0  0
   20.0820   30.4980  129.3980 C   0  0  0  0  0  0  0  0  0  0  0  0
   18.5880   29.8170  127.5130 C   0  0  0  0  0  0  0  0  0  0  0  0
   14.5310   42.3980  123.6190 C   0  0  0  0  0  0  0  0  0  0  0  0
   14.4150   43.5470  124.6260 C   0  0  0  0  0  0  0  0  0  0  0  0
   15.3640   44.7100  124.3430 C   0  0  0  0  0  0  0  0  0  0  0  0
   16.5210   44.8310  125.3400 C   0  0  0  0  0  0  0  0  0  0  0  0
   16.2640   45.5240  126.3640 O   0  0  0  0  0  0  0  0  0  0  0  0
   17.5800   44.2120  125.0320 O   0  0  0  0  0  0  0  0  0  0  0  0
  1 10  1  0  0  0  0
  2  1  2  0  0  0  0
  3  2  1  0  0  0  0
  4  3  2  0  0  0  0
  4  5  1  0  0  0  0
  5  9  1  0  0  0  0
  5  6  2  0  0  0  0
  6  1  1  0  0  0  0
  6  7  1  0  0  0  0
  8  7  2  0  0  0  0
  9  8  1  0  0  0  0
 10 14  2  0  0  0  0
 11 15  1  0  0  0  0
 11 13  1  0  0  0  0
 12 10  1  0  0  0  0
 12 11  2  0  0  0  0
 14 13  1  0  0  0  0
 15 19  1  0  0  0  0
 16 22  1  0  0  0  0
 16 17  1  0  0  0  0
 18 16  2  0  0  0  0
 19 17  2  0  0  0  0
 20 18  1  0  0  0  0
 20 15  2  0  0  0  0
 21 18  1  0  0  0  0
 22 23  1  0  0  0  0
 23 24  1  0  0  0  0
 25 23  1  0  0  0  0
 26  9  1  0  0  0  0
 26 27  1  0  0  0  0
 28 27  1  0  0  0  0
 28 29  1  0  0  0  0
 29 30  1  0  0  0  0
 31 29  2  0  0  0  0
M  END
>  <minimizedAffinity>
-8.20565701

>  <CNNscore>
0.594522476

>  <CNNaffinity>
7.07333231

$$$$

 OpenBabel08282605593D

 31 34  0  0  0  0  0  0  0  0999 V2000
   15.7980   38.4290  122.7670 C   0  0  0  0  0  0  0  0  0  0  0  0
   15.1200   37.8850  121.6600 C   0  0  0  0  0  0  0  0  0  0  0  0
   14.0670   38.5680  121.0600 C   0  0  0  0  0  0  0  0  0  0  0  0
   13.6540   39.8090  121.5430 C   0  0  0  0  0  0  0  0  0  0  0  0
   14.3350   40.3620  122.6410 C   0  0  0  0  0  0  0  0  0  0  0  0
   15.4040   39.6990  123.2620 C   0  0  0  0  0  0  0  0  0  0  0  0
   15.8580   40.5620  124.3070 C   0  0  0  0  0  0  0  0  0  0  0  0
   15.0720   41.6880  124.3090 C   0  0  0  0  0  0  0  0  0  0  0  0
   14.1540   41.5630  123.2980 N   0  0  0  0  0  0  0  0  0  0  0  0
   16.8950   37.7050  123.3940 C   0  0  0  0  0  0  0  0  0  0  0  0
   17.9610   36.1760  124.3780 C   0  0  0  0  0  0  0  0  0  0  0  0
   16.7440   36.4620  123.9810 N   0  0  0  0  0  0  0  0  0  0  0  0
   18.8640   37.1520  124.0780 O   0  0  0  0  0  0  0  0  0  0  0  0
   18.1630   38.1550  123.4160 N   0  0  0  0  0  0  0  0  0  0  0  0
   18.4620   34.9910  125.0470 C   0  0  0  0  0  0  0  0  0  0  0  0
   19.2890   32.7470  126.4270 C   0  0  0  0  0  0  0  0  0  0  0  0
   18.2790   33.4810  126.9480 N   0  0  0  0  0  0  0  0  0  0  0  0
   19.9340   33.0830  125.2370 C   0  0  0  0  0  0  0  0  0  0  0  0
   17.8950   34.5820  126.2500 C   0  0  0  0  0  0  0  0  0  0  0  0
   19.5080   34.2150  124.5400 C   0  0  0  0  0  0  0  0  0  0  0  0
   21.2280   32.1450  124.5910 Cl  0  0  0  0  0  0  0  0  0  0  0  0
   19.7250   31.6260  127.1030 O   0  0  0  0  0  0  0  0  0  0  0  0
   18.8560   31.1450  128.1360 C   0  0  0  0  0  0  0  0  0  0  0  0
   18.1730   29.8970  127.5820 C   0  0  0  0  0  0  0  0  0  0  0  0
   19.6770   30.7860  129.3700 C   0  0  0  0  0  0  0  0  0  0  0  0
   13.1190   42.5540  123.0240 C   0  0  0  0  0  0  0  0  0  0  0  0
   12.7280   43.3830  124.2520 C   0  0  0  0  0  0  0  0  0  0  0  0
   13.4450   44.7300  124.3370 C   0  0  0  0  0  0  0  0  0  0  0  0
   13.7540   45.1850  125.7660 C   0  0  0  0  0  0  0  0  0  0  0  0
   14.9470   45.5550  125.9540 O   0  0  0  0  0  0  0  0  0  0  0  0
   12.7830   45.1570  126.5760 O   0  0  0  0  0  0  0  0  0  0  0  0
  1  6  1  0  0  0  0
  1 10  1  0  0  0  0
  2  1  2  0  0  0  0
  3  4  2  0  0  0  0
  3  2  1  0  0  0  0
  4  5  1  0  0  0  0
  5  6  2  0  0  0  0
  5  9  1  0  0  0  0
  6  7  1  0  0  0  0
  7  8  2  0  0  0  0
  9  8  1  0  0  0  0
 10 14  2  0  0  0  0
 10 12  1  0  0  0  0
 11 15  1  0  0  0  0
 12 11  2  0  0  0  0
 13 11  1  0  0  0  0
 14 13  1  0  0  0  0
 15 19  1  0  0  0  0
 16 17  1  0  0  0  0
 16 22  1  0  0  0  0
 18 16  2  0  0  0  0
 19 17  2  0  0  0  0
 20 15  2  0  0  0  0
 20 18  1  0  0  0  0
 21 18  1  0  0  0  0
 22 23  1  0  0  0  0
 23 25  1  0  0  0  0
 24 23  1  0  0  0  0
 26  9  1  0  0  0  0
 26 27  1  0  0  0  0
 27 28  1  0  0  0  0
 28 29  1  0  0  0  0
 29 30  2  0  0  0  0
 29 31  1  0  0  0  0
M  END
>  <minimizedAffinity>
-8.80011463

>  <CNNscore>
0.56695652

>  <CNNaffinity>
6.49883223

$$$$

 OpenBabel08282605593D

 31 34  0  0  0  0  0  0  0  0999 V2000
   14.3080   37.7560  125.0100 C   0  0  0  0  0  0  0  0  0  0  0  0
   13.1380   37.4420  124.2940 C   0  0  0  0  0  0  0  0  0  0  0  0
   12.4850   38.4050  123.5320 C   0  0  0  0  0  0  0  0  0  0  0  0
   12.9720   39.7100  123.4620 C   0  0  0  0  0  0  0  0  0  0  0  0
   14.1470   40.0270  124.1660 C   0  0  0  0  0  0  0  0  0  0  0  0
   14.8300   39.0740  124.9370 C   0  0  0  0  0  0  0  0  0  0  0  0
   15.9740   39.7400  125.4740 C   0  0  0  0  0  0  0  0  0  0  0  0
   15.9560   41.0440  125.0460 C   0  0  0  0  0  0  0  0  0  0  0  0
   14.8500   41.2120  124.2530 N   0  0  0  0  0  0  0  0  0  0  0  0
   14.9820   36.7440  125.8110 C   0  0  0  0  0  0  0  0  0  0  0  0
   16.3640   35.2600  126.3850 C   0  0  0  0  0  0  0  0  0  0  0  0
   16.0600   36.0090  125.3520 N   0  0  0  0  0  0  0  0  0  0  0  0
   15.5540   35.4760  127.4590 O   0  0  0  0  0  0  0  0  0  0  0  0
   14.6500   36.4650  127.0850 N   0  0  0  0  0  0  0  0  0  0  0  0
   17.4270   34.2850  126.5410 C   0  0  0  0  0  0  0  0  0  0  0  0
   19.3800   32.3850  126.9820 C   0  0  0  0  0  0  0  0  0  0  0  0
   18.5060   32.6460  127.9810 N   0  0  0  0  0  0  0  0  0  0  0  0
   19.3440   33.0410  125.7530 C   0  0  0  0  0  0  0  0  0  0  0  0
   17.5580   33.5870  127.7380 C   0  0  0  0  0  0  0  0  0  0  0  0
   18.3510   33.9970  125.5320 C   0  0  0  0  0  0  0  0  0  0  0  0
   20.4730   32.7060  124.4930 Cl  0  0  0  0  0  0  0  0  0  0  0  0
   20.3700   31.4450  127.1840 O   0  0  0  0  0  0  0  0  0  0  0  0
   19.9700   30.2550  127.8740 C   0  0  0  0  0  0  0  0  0  0  0  0
   20.0350   30.5750  129.3650 C   0  0  0  0  0  0  0  0  0  0  0  0
   18.5430   29.8890  127.4800 C   0  0  0  0  0  0  0  0  0  0  0  0
   14.4760   42.4870  123.6510 C   0  0  0  0  0  0  0  0  0  0  0  0
   13.7410   42.3380  122.3150 C   0  0  0  0  0  0  0  0  0  0  0  0
   14.5550   42.8070  121.1100 C   0  0  0  0  0  0  0  0  0  0  0  0
   13.7080   43.1900  119.8920 C   0  0  0  0  0  0  0  0  0  0  0  0
   13.4830   44.4280  119.7770 O   0  0  0  0  0  0  0  0  0  0  0  0
   13.3540   42.2340  119.1440 O   0  0  0  0  0  0  0  0  0  0  0  0
  1 10  1  0  0  0  0
  2  1  2  0  0  0  0
  3  2  1  0  0  0  0
  4  3  2  0  0  0  0
  4  5  1  0  0  0  0
  5  9  1  0  0  0  0
  5  6  2  0  0  0  0
  6  1  1  0  0  0  0
  6  7  1  0  0  0  0
  8  7  2  0  0  0  0
  9  8  1  0  0  0  0
 10 14  2  0  0  0  0
 11 15  1  0  0  0  0
 11 13  1  0  0  0  0
 12 10  1  0  0  0  0
 12 11  2  0  0  0  0
 14 13  1  0  0  0  0
 15 19  1  0  0  0  0
 16 22  1  0  0  0  0
 16 17  1  0  0  0  0
 18 16  2  0  0  0  0
 19 17  2  0  0  0  0
 20 18  1  0  0  0  0
 20 15  2  0  0  0  0
 21 18  1  0  0  0  0
 22 23  1  0  0  0  0
 23 24  1  0  0  0  0
 25 23  1  0  0  0  0
 26  9  1  0  0  0  0
 27 26  1  0  0  0  0
 28 27  1  0  0  0  0
 29 28  1  0  0  0  0
 30 29  1  0  0  0  0
 31 29  2  0  0  0  0
M  END
>  <minimizedAffinity>
-8.16456509

>  <CNNscore>
0.531632364

>  <CNNaffinity>
6.9941349

$$$$

 OpenBabel08282605593D

 31 34  0  0  0  0  0  0  0  0999 V2000
   15.8050   38.3390  122.7870 C   0  0  0  0  0  0  0  0  0  0  0  0
   15.1790   37.8040  121.6450 C   0  0  0  0  0  0  0  0  0  0  0  0
   14.1210   38.4660  121.0330 C   0  0  0  0  0  0  0  0  0  0  0  0
   13.6490   39.6780  121.5370 C   0  0  0  0  0  0  0  0  0  0  0  0
   14.2780   40.2230  122.6700 C   0  0  0  0  0  0  0  0  0  0  0  0
   15.3510   39.5810  123.3050 C   0  0  0  0  0  0  0  0  0  0  0  0
   15.7440   40.4290  124.3850 C   0  0  0  0  0  0  0  0  0  0  0  0
   14.9190   41.5260  124.3950 C   0  0  0  0  0  0  0  0  0  0  0  0
   14.0350   41.3980  123.3540 N   0  0  0  0  0  0  0  0  0  0  0  0
   16.9080   37.6360  123.4270 C   0  0  0  0  0  0  0  0  0  0  0  0
   17.9930   36.1260  124.4190 C   0  0  0  0  0  0  0  0  0  0  0  0
   16.7760   36.3870  124.0040 N   0  0  0  0  0  0  0  0  0  0  0  0
   18.8780   37.1240  124.1390 O   0  0  0  0  0  0  0  0  0  0  0  0
   18.1650   38.1150  123.4720 N   0  0  0  0  0  0  0  0  0  0  0  0
   18.5110   34.9480  125.0880 C   0  0  0  0  0  0  0  0  0  0  0  0
   19.3700   32.7180  126.4690 C   0  0  0  0  0  0  0  0  0  0  0  0
   18.3560   33.4440  126.9950 N   0  0  0  0  0  0  0  0  0  0  0  0
   20.0030   33.0560  125.2740 C   0  0  0  0  0  0  0  0  0  0  0  0
   17.9560   34.5380  126.2970 C   0  0  0  0  0  0  0  0  0  0  0  0
   19.5610   34.1810  124.5760 C   0  0  0  0  0  0  0  0  0  0  0  0
   21.3020   32.1280  124.6220 Cl  0  0  0  0  0  0  0  0  0  0  0  0
   19.8210   31.6030  127.1470 O   0  0  0  0  0  0  0  0  0  0  0  0
   18.9680   31.1200  128.1910 C   0  0  0  0  0  0  0  0  0  0  0  0
   18.2580   29.8880  127.6350 C   0  0  0  0  0  0  0  0  0  0  0  0
   19.8080   30.7370  129.4040 C   0  0  0  0  0  0  0  0  0  0  0  0
   12.9740   42.3600  123.0750 C   0  0  0  0  0  0  0  0  0  0  0  0
   11.6140   41.7060  122.8110 C   0  0  0  0  0  0  0  0  0  0  0  0
   10.8410   41.3590  124.0830 C   0  0  0  0  0  0  0  0  0  0  0  0
    9.4090   41.9000  124.1130 C   0  0  0  0  0  0  0  0  0  0  0  0
    9.3170   43.1280  124.3970 O   0  0  0  0  0  0  0  0  0  0  0  0
    8.4990   41.0680  123.8330 O   0  0  0  0  0  0  0  0  0  0  0  0
  1  6  1  0  0  0  0
  1 10  1  0  0  0  0
  2  1  2  0  0  0  0
  3  4  2  0  0  0  0
  3  2  1  0  0  0  0
  4  5  1  0  0  0  0
  5  6  2  0  0  0  0
  5  9  1  0  0  0  0
  6  7  1  0  0  0  0
  7  8  2  0  0  0  0
  9  8  1  0  0  0  0
 10 14  2  0  0  0  0
 10 12  1  0  0  0  0
 11 15  1  0  0  0  0
 12 11  2  0  0  0  0
 13 11  1  0  0  0  0
 14 13  1  0  0  0  0
 15 19  1  0  0  0  0
 16 17  1  0  0  0  0
 16 22  1  0  0  0  0
 18 16  2  0  0  0  0
 19 17  2  0  0  0  0
 20 15  2  0  0  0  0
 20 18  1  0  0  0  0
 21 18  1  0  0  0  0
 22 23  1  0  0  0  0
 23 25  1  0  0  0  0
 24 23  1  0  0  0  0
 26  9  1  0  0  0  0
 27 26  1  0  0  0  0
 27 28  1  0  0  0  0
 28 29  1  0  0  0  0
 29 30  1  0  0  0  0
 31 29  2  0  0  0  0
M  END
>  <minimizedAffinity>
-9.31323242

>  <CNNscore>
0.478678137

>  <CNNaffinity>
6.56757593

$$$$

 OpenBabel08282605593D

 31 34  0  0  0  0  0  0  0  0999 V2000
   17.0260   39.3140  123.5480 C   0  0  0  0  0  0  0  0  0  0  0  0
   17.4930   40.6200  123.3100 C   0  0  0  0  0  0  0  0  0  0  0  0
   16.6170   41.6380  122.9490 C   0  0  0  0  0  0  0  0  0  0  0  0
   15.2510   41.3890  122.8110 C   0  0  0  0  0  0  0  0  0  0  0  0
   14.7780   40.0890  123.0590 C   0  0  0  0  0  0  0  0  0  0  0  0
   15.6370   39.0450  123.4300 C   0  0  0  0  0  0  0  0  0  0  0  0
   14.8110   37.8950  123.6220 C   0  0  0  0  0  0  0  0  0  0  0  0
   13.5110   38.2480  123.3570 C   0  0  0  0  0  0  0  0  0  0  0  0
   13.4960   39.5770  123.0190 N   0  0  0  0  0  0  0  0  0  0  0  0
   17.9500   38.2520  123.9180 C   0  0  0  0  0  0  0  0  0  0  0  0
   18.6700   36.3820  124.5750 C   0  0  0  0  0  0  0  0  0  0  0  0
   17.5390   37.0280  124.4120 N   0  0  0  0  0  0  0  0  0  0  0  0
   19.7600   37.1160  124.2140 O   0  0  0  0  0  0  0  0  0  0  0  0
   19.2850   38.3450  123.7670 N   0  0  0  0  0  0  0  0  0  0  0  0
   18.9050   35.0310  125.0450 C   0  0  0  0  0  0  0  0  0  0  0  0
   19.2040   32.4640  126.0150 C   0  0  0  0  0  0  0  0  0  0  0  0
   18.1520   33.1920  126.4510 N   0  0  0  0  0  0  0  0  0  0  0  0
   20.1460   32.9570  125.1130 C   0  0  0  0  0  0  0  0  0  0  0  0
   18.0300   34.4530  125.9600 C   0  0  0  0  0  0  0  0  0  0  0  0
   19.9870   34.2540  124.6200 C   0  0  0  0  0  0  0  0  0  0  0  0
   21.4900   32.0210  124.5750 Cl  0  0  0  0  0  0  0  0  0  0  0  0
   19.3790   31.1810  126.4930 O   0  0  0  0  0  0  0  0  0  0  0  0
   18.6410   30.8500  127.6750 C   0  0  0  0  0  0  0  0  0  0  0  0
   17.8150   29.6110  127.3400 C   0  0  0  0  0  0  0  0  0  0  0  0
   19.6070   30.5410  128.8140 C   0  0  0  0  0  0  0  0  0  0  0  0
   12.2870   40.2960  122.6300 C   0  0  0  0  0  0  0  0  0  0  0  0
   11.3430   40.5800  123.8020 C   0  0  0  0  0  0  0  0  0  0  0  0
   10.8590   42.0280  123.8650 C   0  0  0  0  0  0  0  0  0  0  0  0
    9.3610   42.2000  123.5950 C   0  0  0  0  0  0  0  0  0  0  0  0
    8.6700   42.4660  124.6190 O   0  0  0  0  0  0  0  0  0  0  0  0
    9.0000   42.0780  122.3900 O   0  0  0  0  0  0  0  0  0  0  0  0
  1 10  1  0  0  0  0
  2  1  2  0  0  0  0
  3  2  1  0  0  0  0
  4  3  2  0  0  0  0
  4  5  1  0  0  0  0
  5  6  2  0  0  0  0
  6  1  1  0  0  0  0
  6  7  1  0  0  0  0
  8  7  2  0  0  0  0
  9  5  1  0  0  0  0
  9  8  1  0  0  0  0
 10 12  1  0  0  0  0
 11 15  1  0  0  0  0
 12 11  2  0  0  0  0
 13 11  1  0  0  0  0
 14 10  2  0  0  0  0
 14 13  1  0  0  0  0
 15 19  1  0  0  0  0
 16 17  1  0  0  0  0
 16 22  1  0  0  0  0
 18 16  2  0  0  0  0
 19 17  2  0  0  0  0
 20 15  2  0  0  0  0
 20 18  1  0  0  0  0
 21 18  1  0  0  0  0
 22 23  1  0  0  0  0
 23 25  1  0  0  0  0
 24 23  1  0  0  0  0
 26  9  1  0  0  0  0
 26 27  1  0  0  0  0
 27 28  1  0  0  0  0
 29 28  1  0  0  0  0
 29 30  1  0  0  0  0
 31 29  2  0  0  0  0
M  END
>  <minimizedAffinity>
-8.67953491

>  <CNNscore>
0.398884416

>  <CNNaffinity>
6.4471879

$$$$

 OpenBabel08282605593D

 31 34  0  0  0  0  0  0  0  0999 V2000
   19.7610   35.5730  125.2650 C   0  0  0  0  0  0  0  0  0  0  0  0
   20.6610   35.1330  124.2760 C   0  0  0  0  0  0  0  0  0  0  0  0
   20.8470   33.7770  124.0310 C   0  0  0  0  0  0  0  0  0  0  0  0
   20.1470   32.8170  124.7610 C   0  0  0  0  0  0  0  0  0  0  0  0
   19.2380   33.2500  125.7410 C   0  0  0  0  0  0  0  0  0  0  0  0
   19.0260   34.6110  126.0070 C   0  0  0  0  0  0  0  0  0  0  0  0
   18.0290   34.6700  127.0290 C   0  0  0  0  0  0  0  0  0  0  0  0
   17.6790   33.3860  127.3650 C   0  0  0  0  0  0  0  0  0  0  0  0
   18.4110   32.5310  126.5810 N   0  0  0  0  0  0  0  0  0  0  0  0
   19.5770   36.9940  125.5210 C   0  0  0  0  0  0  0  0  0  0  0  0
   18.8810   38.9750  125.3300 C   0  0  0  0  0  0  0  0  0  0  0  0
   18.7920   37.8120  124.7290 N   0  0  0  0  0  0  0  0  0  0  0  0
   19.6650   38.9420  126.4430 O   0  0  0  0  0  0  0  0  0  0  0  0
   20.1140   37.6320  126.5780 N   0  0  0  0  0  0  0  0  0  0  0  0
   18.2580   40.2400  124.9940 C   0  0  0  0  0  0  0  0  0  0  0  0
   17.0610   42.5970  124.1960 C   0  0  0  0  0  0  0  0  0  0  0  0
   17.4370   41.7160  123.2400 N   0  0  0  0  0  0  0  0  0  0  0  0
   17.2650   42.3710  125.5570 C   0  0  0  0  0  0  0  0  0  0  0  0
   18.0270   40.5670  123.6600 C   0  0  0  0  0  0  0  0  0  0  0  0
   17.8640   41.1750  125.9560 C   0  0  0  0  0  0  0  0  0  0  0  0
   16.7910   43.5080  126.7620 Cl  0  0  0  0  0  0  0  0  0  0  0  0
   16.4690   43.7850  123.8200 O   0  0  0  0  0  0  0  0  0  0  0  0
   15.1150   43.6900  123.3610 C   0  0  0  0  0  0  0  0  0  0  0  0
   15.1820   43.4880  121.8490 C   0  0  0  0  0  0  0  0  0  0  0  0
   14.4340   42.4940  124.0180 C   0  0  0  0  0  0  0  0  0  0  0  0
   18.3370   31.0770  126.6870 C   0  0  0  0  0  0  0  0  0  0  0  0
   19.6310   30.4370  127.1980 C   0  0  0  0  0  0  0  0  0  0  0  0
   20.2570   31.1750  128.3810 C   0  0  0  0  0  0  0  0  0  0  0  0
   20.0500   30.4830  129.7320 C   0  0  0  0  0  0  0  0  0  0  0  0
   19.1540   31.0020  130.4560 O   0  0  0  0  0  0  0  0  0  0  0  0
   20.7780   29.4740  129.9520 O   0  0  0  0  0  0  0  0  0  0  0  0
  1 10  1  0  0  0  0
  1  6  1  0  0  0  0
  2  1  2  0  0  0  0
  3  2  1  0  0  0  0
  3  4  2  0  0  0  0
  4  5  1  0  0  0  0
  5  6  2  0  0  0  0
  5  9  1  0  0  0  0
  6  7  1  0  0  0  0
  7  8  2  0  0  0  0
  9 26  1  0  0  0  0
  9  8  1  0  0  0  0
 10 14  2  0  0  0  0
 11 13  1  0  0  0  0
 12 11  2  0  0  0  0
 12 10  1  0  0  0  0
 13 14  1  0  0  0  0
 15 11  1  0  0  0  0
 15 20  1  0  0  0  0
 16 18  1  0  0  0  0
 17 19  1  0  0  0  0
 17 16  2  0  0  0  0
 18 20  2  0  0  0  0
 18 21  1  0  0  0  0
 19 15  2  0  0  0  0
 22 16  1  0  0  0  0
 23 22  1  0  0  0  0
 23 25  1  0  0  0  0
 24 23  1  0  0  0  0
 26 27  1  0  0  0  0
 27 28  1  0  0  0  0
 28 29  1  0  0  0  0
 29 31  2  0  0  0  0
 29 30  1  0  0  0  0
M  END
>  <minimizedAffinity>
-8.05951881

>  <CNNscore>
0.38487491

>  <CNNaffinity>
6.4817872

$$$$

 OpenBabel08282605593D

 31 34  0  0  0  0  0  0  0  0999 V2000
   16.3110   38.8160  124.9180 C   0  0  0  0  0  0  0  0  0  0  0  0
   16.9520   39.7260  125.7800 C   0  0  0  0  0  0  0  0  0  0  0  0
   16.8340   41.0980  125.5880 C   0  0  0  0  0  0  0  0  0  0  0  0
   16.0780   41.6090  124.5320 C   0  0  0  0  0  0  0  0  0  0  0  0
   15.4260   40.7050  123.6760 C   0  0  0  0  0  0  0  0  0  0  0  0
   15.5230   39.3160  123.8490 C   0  0  0  0  0  0  0  0  0  0  0  0
   14.7190   38.7270  122.8240 C   0  0  0  0  0  0  0  0  0  0  0  0
   14.1810   39.7360  122.0650 C   0  0  0  0  0  0  0  0  0  0  0  0
   14.6100   40.9300  122.5850 N   0  0  0  0  0  0  0  0  0  0  0  0
   16.4460   37.3810  125.1220 C   0  0  0  0  0  0  0  0  0  0  0  0
   17.3050   35.5090  125.5720 C   0  0  0  0  0  0  0  0  0  0  0  0
   17.6410   36.7730  125.4570 N   0  0  0  0  0  0  0  0  0  0  0  0
   15.9820   35.2850  125.3330 O   0  0  0  0  0  0  0  0  0  0  0  0
   15.4120   36.5220  125.0500 N   0  0  0  0  0  0  0  0  0  0  0  0
   18.1180   34.3640  125.9310 C   0  0  0  0  0  0  0  0  0  0  0  0
   19.5590   32.1520  126.7400 C   0  0  0  0  0  0  0  0  0  0  0  0
   18.5360   32.5680  127.5210 N   0  0  0  0  0  0  0  0  0  0  0  0
   19.9210   32.7980  125.5580 C   0  0  0  0  0  0  0  0  0  0  0  0
   17.8460   33.6610  127.1020 C   0  0  0  0  0  0  0  0  0  0  0  0
   19.1860   33.9120  125.1510 C   0  0  0  0  0  0  0  0  0  0  0  0
   21.2360   32.2630  124.5790 Cl  0  0  0  0  0  0  0  0  0  0  0  0
   20.2980   31.0530  127.1280 O   0  0  0  0  0  0  0  0  0  0  0  0
   19.6360   30.1340  128.0040 C   0  0  0  0  0  0  0  0  0  0  0  0
   19.6050   30.7910  129.3820 C   0  0  0  0  0  0  0  0  0  0  0  0
   18.2140   29.8880  127.5100 C   0  0  0  0  0  0  0  0  0  0  0  0
   14.2720   42.2280  122.0090 C   0  0  0  0  0  0  0  0  0  0  0  0
   13.7450   42.1380  120.5730 C   0  0  0  0  0  0  0  0  0  0  0  0
   12.3790   42.7930  120.3780 C   0  0  0  0  0  0  0  0  0  0  0  0
   11.3580   42.4490  121.4680 C   0  0  0  0  0  0  0  0  0  0  0  0
   11.0410   41.2280  121.5240 O   0  0  0  0  0  0  0  0  0  0  0  0
   10.9730   43.4150  122.1870 O   0  0  0  0  0  0  0  0  0  0  0  0
  1 10  1  0  0  0  0
  1  2  1  0  0  0  0
  3  2  2  0  0  0  0
  4  3  1  0  0  0  0
  5  6  1  0  0  0  0
  5  4  2  0  0  0  0
  6  1  2  0  0  0  0
  7  6  1  0  0  0  0
  8  9  1  0  0  0  0
  8  7  2  0  0  0  0
  9  5  1  0  0  0  0
 10 12  1  0  0  0  0
 11 15  1  0  0  0  0
 12 11  2  0  0  0  0
 13 11  1  0  0  0  0
 14 10  2  0  0  0  0
 14 13  1  0  0  0  0
 15 19  1  0  0  0  0
 16 22  1  0  0  0  0
 16 17  1  0  0  0  0
 18 16  2  0  0  0  0
 19 17  2  0  0  0  0
 20 18  1  0  0  0  0
 20 15  2  0  0  0  0
 21 18  1  0  0  0  0
 22 23  1  0  0  0  0
 23 24  1  0  0  0  0
 25 23  1  0  0  0  0
 26  9  1  0  0  0  0
 27 26  1  0  0  0  0
 28 27  1  0  0  0  0
 28 29  1  0  0  0  0
 29 30  2  0  0  0  0
 29 31  1  0  0  0  0
M  END
>  <minimizedAffinity>
-8.5057106

>  <CNNscore>
0.37177062

>  <CNNaffinity>
6.8011651

$$$$
