
 OpenBabel08282617243D

 33 36  0  0  1  0  0  0  0  0999 V2000
   16.1810   38.3530  122.9120 N   0  0  0  0  0  0  0  0  0  0  0  0
   16.8640   38.0290  124.0760 C   0  0  0  0  0  0  0  0  0  0  0  0
   16.2470   37.6570  125.0720 O   0  0  0  0  0  0  0  0  0  0  0  0
   16.7230   38.8060  122.1730 H   0  0  0  0  0  0  0  0  0  0  0  0
   14.6980   38.5130  122.9310 C   0  0  1  0  0  0  0  0  0  0  0  0
   14.2250   42.3460  122.7780 C   0  0  0  0  0  0  0  0  0  0  0  0
   15.3350   41.1920  123.6880 S   0  0  0  0  0  0  0  0  0  0  0  0
   13.6180   41.4490  121.6860 C   0  0  1  0  0  0  0  0  0  0  0  0
   14.1100   39.8470  123.4810 C   0  0  1  0  0  0  0  0  0  0  0  0
   13.3710   40.0660  122.2580 N   0  0  0  0  0  4  0  0  0  0  0  0
   13.9940   38.9610  121.6100 C   0  0  0  0  0  0  0  0  0  0  0  0
   13.8150   38.7340  120.4480 O   0  0  0  0  0  0  0  0  0  0  0  0
   15.0740   43.4770  122.1930 C   0  0  0  0  0  0  0  0  0  0  0  0
   13.2180   42.9130  123.7910 C   0  0  0  0  0  0  0  0  0  0  0  0
   12.3360   39.9540  122.2480 H   0  0  0  0  0  0  0  0  0  0  0  0
   12.2610   42.0140  121.1830 C   0  0  0  0  0  0  0  0  0  0  0  0
   12.2840   43.0800  120.5320 O   0  0  0  0  0  0  0  0  0  0  0  0
   11.3030   41.2590  121.5620 O   0  0  0  0  0  0  0  0  0  0  0  0
   18.4070   38.1860  123.9770 C   0  0  2  0  0  0  0  0  0  0  0  0
   19.1530   36.9330  124.2130 N   0  0  0  0  0  0  0  0  0  0  0  0
   18.4740   35.8560  124.3830 C   0  0  0  0  0  0  0  0  0  0  0  0
   19.1390   34.6070  124.6260 C   0  0  0  0  0  0  0  0  0  0  0  0
   20.3170   34.0720  124.1400 C   0  0  0  0  0  0  0  0  0  0  0  0
   18.5620   33.7250  125.4970 O   0  0  0  0  0  0  0  0  0  0  0  0
   20.4680   32.8040  124.7470 C   0  0  0  0  0  0  0  0  0  0  0  0
   19.3740   32.6390  125.5630 C   0  0  0  0  0  0  0  0  0  0  0  0
   18.8880   39.3750  124.7870 C   0  0  0  0  0  0  0  0  0  0  0  0
   19.5360   39.1720  126.0070 C   0  0  0  0  0  0  0  0  0  0  0  0
   18.8320   40.6790  124.2850 C   0  0  0  0  0  0  0  0  0  0  0  0
   20.1790   40.2370  126.6530 C   0  0  0  0  0  0  0  0  0  0  0  0
   19.4820   41.7260  124.9520 C   0  0  0  0  0  0  0  0  0  0  0  0
   20.2070   41.5440  126.1390 C   0  0  0  0  0  0  0  0  0  0  0  0
   20.8430   42.4920  126.7040 O   0  0  0  0  0  0  0  0  0  0  0  0
  1  2  1  0  0  0  0
  2  3  2  0  0  0  0
  4  1  1  0  0  0  0
  5  1  1  6  0  0  0
  5  9  1  0  0  0  0
  6  7  1  0  0  0  0
  6 14  1  0  0  0  0
  8 16  1  1  0  0  0
  8 10  1  0  0  0  0
  8  6  1  0  0  0  0
  9  7  1  6  0  0  0
 10  9  1  0  0  0  0
 11 10  1  0  0  0  0
 11  5  1  0  0  0  0
 12 11  2  0  0  0  0
 13  6  1  0  0  0  0
 15 10  1  0  0  0  0
 16 18  1  0  0  0  0
 17 16  2  0  0  0  0
 19  2  1  1  0  0  0
 19 20  1  0  0  0  0
 19 27  1  0  0  0  0
 20 21  2  0  0  0  0
 21 22  1  0  0  0  0
 22 24  1  0  0  0  0
 23 22  2  0  0  0  0
 23 25  1  0  0  0  0
 24 26  1  0  0  0  0
 25 26  2  0  0  0  0
 27 28  1  0  0  0  0
 28 30  2  0  0  0  0
 29 27  2  0  0  0  0
 29 31  1  0  0  0  0
 31 32  1  0  0  0  0
 32 30  1  0  0  0  0
 32 33  2  0  0  0  0
M  END
>  <minimizedAffinity>
-8.87511444

>  <CNNscore>
0.585358441

>  <CNNaffinity>
5.7477417

$$$$

 OpenBabel08282617243D

 33 36  0  0  1  0  0  0  0  0999 V2000
   12.8840   39.5950  123.6120 N   0  0  0  0  0  0  0  0  0  0  0  0
   12.6000   40.1900  122.3910 C   0  0  0  0  0  0  0  0  0  0  0  0
   12.1700   39.5150  121.4580 O   0  0  0  0  0  0  0  0  0  0  0  0
   13.3850   40.1670  124.2960 H   0  0  0  0  0  0  0  0  0  0  0  0
   12.9280   38.1090  123.7310 C   0  0  1  0  0  0  0  0  0  0  0  0
   16.6270   37.4090  124.6090 C   0  0  0  0  0  0  0  0  0  0  0  0
   15.7400   38.5080  123.4270 S   0  0  0  0  0  0  0  0  0  0  0  0
   15.5070   36.9560  125.5620 C   0  0  1  0  0  0  0  0  0  0  0  0
   14.2890   37.3920  123.4760 C   0  0  1  0  0  0  0  0  0  0  0  0
   14.2310   36.7490  124.7700 N   0  0  0  0  0  4  0  0  0  0  0  0
   13.0820   37.4930  125.1590 C   0  0  0  0  0  0  0  0  0  0  0  0
   12.6420   37.4300  126.2710 O   0  0  0  0  0  0  0  0  0  0  0  0
   17.7000   38.2310  125.3260 C   0  0  0  0  0  0  0  0  0  0  0  0
   17.2820   36.2840  123.7920 C   0  0  0  0  0  0  0  0  0  0  0  0
   14.0390   35.7280  124.8350 H   0  0  0  0  0  0  0  0  0  0  0  0
   15.8690   35.6130  126.2570 C   0  0  0  0  0  0  0  0  0  0  0  0
   16.4010   34.7250  125.5580 O   0  0  0  0  0  0  0  0  0  0  0  0
   15.5210   35.6470  127.4850 O   0  0  0  0  0  0  0  0  0  0  0  0
   12.8760   41.7190  122.3450 C   0  0  2  0  0  0  0  0  0  0  0  0
   12.2930   42.4680  123.4760 N   0  0  0  0  0  0  0  0  0  0  0  0
   12.8370   43.5880  123.7950 C   0  0  0  0  0  0  0  0  0  0  0  0
   12.3250   44.3610  124.8910 C   0  0  0  0  0  0  0  0  0  0  0  0
   12.9320   44.9070  126.0050 C   0  0  0  0  0  0  0  0  0  0  0  0
   10.9910   44.6590  124.9060 O   0  0  0  0  0  0  0  0  0  0  0  0
   11.9200   45.5740  126.7340 C   0  0  0  0  0  0  0  0  0  0  0  0
   10.7570   45.3920  126.0240 C   0  0  0  0  0  0  0  0  0  0  0  0
   12.5630   42.2900  120.9750 C   0  0  0  0  0  0  0  0  0  0  0  0
   11.3530   42.9490  120.7540 C   0  0  0  0  0  0  0  0  0  0  0  0
   13.5130   42.3040  119.9480 C   0  0  0  0  0  0  0  0  0  0  0  0
   11.1460   43.6700  119.5700 C   0  0  0  0  0  0  0  0  0  0  0  0
   13.2790   43.0310  118.7740 C   0  0  0  0  0  0  0  0  0  0  0  0
   12.1070   43.7690  118.5500 C   0  0  0  0  0  0  0  0  0  0  0  0
   11.9320   44.4740  117.5050 O   0  0  0  0  0  0  0  0  0  0  0  0
  1  4  1  0  0  0  0
  2  1  1  0  0  0  0
  3  2  2  0  0  0  0
  5  1  1  1  0  0  0
  5 11  1  0  0  0  0
  6 13  1  0  0  0  0
  6  8  1  0  0  0  0
  7  6  1  0  0  0  0
  8 16  1  6  0  0  0
  9  7  1  1  0  0  0
  9  5  1  0  0  0  0
  9 10  1  0  0  0  0
 10 15  1  0  0  0  0
 10 11  1  0  0  0  0
 10  8  1  0  0  0  0
 11 12  2  0  0  0  0
 14  6  1  0  0  0  0
 16 18  1  0  0  0  0
 17 16  2  0  0  0  0
 19  2  1  6  0  0  0
 19 20  1  0  0  0  0
 20 21  2  0  0  0  0
 21 22  1  0  0  0  0
 22 24  1  0  0  0  0
 22 23  2  0  0  0  0
 23 25  1  0  0  0  0
 24 26  1  0  0  0  0
 26 25  2  0  0  0  0
 27 19  1  0  0  0  0
 28 27  2  0  0  0  0
 29 27  1  0  0  0  0
 30 28  1  0  0  0  0
 31 29  2  0  0  0  0
 32 31  1  0  0  0  0
 32 30  1  0  0  0  0
 33 32  2  0  0  0  0
M  END
>  <minimizedAffinity>
-7.88689852

>  <CNNscore>
0.557585299

>  <CNNaffinity>
5.19862223

$$$$

 OpenBabel08282617243D

 33 36  0  0  1  0  0  0  0  0999 V2000
   12.6810   39.6590  123.7170 N   0  0  0  0  0  0  0  0  0  0  0  0
   12.3130   40.2860  122.5350 C   0  0  0  0  0  0  0  0  0  0  0  0
   11.8950   39.6250  121.5870 O   0  0  0  0  0  0  0  0  0  0  0  0
   13.1690   40.2330  124.4090 H   0  0  0  0  0  0  0  0  0  0  0  0
   12.8290   38.1760  123.7660 C   0  0  1  0  0  0  0  0  0  0  0  0
   16.5770   37.6920  124.5770 C   0  0  0  0  0  0  0  0  0  0  0  0
   15.6030   38.7810  123.4560 S   0  0  0  0  0  0  0  0  0  0  0  0
   15.5030   37.1200  125.5180 C   0  0  1  0  0  0  0  0  0  0  0  0
   14.2320   37.5670  123.4650 C   0  0  1  0  0  0  0  0  0  0  0  0
   14.2340   36.8620  124.7270 N   0  0  0  0  0  4  0  0  0  0  0  0
   13.0420   37.5070  125.1620 C   0  0  0  0  0  0  0  0  0  0  0  0
   12.6200   37.3620  126.2730 O   0  0  0  0  0  0  0  0  0  0  0  0
   17.6000   38.5530  125.3220 C   0  0  0  0  0  0  0  0  0  0  0  0
   17.2980   36.6540  123.7020 C   0  0  0  0  0  0  0  0  0  0  0  0
   14.1130   35.8280  124.7460 H   0  0  0  0  0  0  0  0  0  0  0  0
   15.9640   35.7740  126.1450 C   0  0  0  0  0  0  0  0  0  0  0  0
   15.6820   35.5690  127.3450 O   0  0  0  0  0  0  0  0  0  0  0  0
   16.6030   35.0840  125.2830 O   0  0  0  0  0  0  0  0  0  0  0  0
   12.4860   41.8310  122.5500 C   0  0  2  0  0  0  0  0  0  0  0  0
   11.9590   42.5050  121.3460 N   0  0  0  0  0  0  0  0  0  0  0  0
   10.8010   43.0560  121.4280 C   0  0  0  0  0  0  0  0  0  0  0  0
   10.2280   43.7190  120.2900 C   0  0  0  0  0  0  0  0  0  0  0  0
   10.7030   44.7160  119.4600 C   0  0  0  0  0  0  0  0  0  0  0  0
    8.9770   43.3440  119.8850 O   0  0  0  0  0  0  0  0  0  0  0  0
    9.6940   44.9590  118.4990 C   0  0  0  0  0  0  0  0  0  0  0  0
    8.6650   44.0990  118.8020 C   0  0  0  0  0  0  0  0  0  0  0  0
   13.9020   42.2190  122.9280 C   0  0  0  0  0  0  0  0  0  0  0  0
   14.2430   42.3930  124.2710 C   0  0  0  0  0  0  0  0  0  0  0  0
   14.9300   42.2720  121.9800 C   0  0  0  0  0  0  0  0  0  0  0  0
   15.5860   42.5290  124.6480 C   0  0  0  0  0  0  0  0  0  0  0  0
   16.2630   42.4120  122.3850 C   0  0  0  0  0  0  0  0  0  0  0  0
   16.6490   42.5120  123.7300 C   0  0  0  0  0  0  0  0  0  0  0  0
   17.8690   42.5790  124.0890 O   0  0  0  0  0  0  0  0  0  0  0  0
  1  4  1  0  0  0  0
  2 19  1  0  0  0  0
  2  1  1  0  0  0  0
  3  2  2  0  0  0  0
  5  1  1  1  0  0  0
  5 11  1  0  0  0  0
  6 13  1  0  0  0  0
  6  8  1  0  0  0  0
  7  6  1  0  0  0  0
  8 16  1  6  0  0  0
  9  7  1  1  0  0  0
  9  5  1  0  0  0  0
  9 10  1  0  0  0  0
 10 15  1  0  0  0  0
 10 11  1  0  0  0  0
 10  8  1  0  0  0  0
 11 12  2  0  0  0  0
 14  6  1  0  0  0  0
 16 17  1  0  0  0  0
 18 16  2  0  0  0  0
 19 20  1  6  0  0  0
 19 27  1  0  0  0  0
 20 21  2  0  0  0  0
 22 21  1  0  0  0  0
 23 22  2  0  0  0  0
 24 22  1  0  0  0  0
 25 26  2  0  0  0  0
 25 23  1  0  0  0  0
 26 24  1  0  0  0  0
 27 28  1  0  0  0  0
 28 30  2  0  0  0  0
 29 31  1  0  0  0  0
 29 27  2  0  0  0  0
 31 32  1  0  0  0  0
 32 33  2  0  0  0  0
 32 30  1  0  0  0  0
M  END
>  <minimizedAffinity>
-7.6434269

>  <CNNscore>
0.53116399

>  <CNNaffinity>
5.63868666

$$$$

 OpenBabel08282617243D

 33 36  0  0  1  0  0  0  0  0999 V2000
   12.5050   39.3910  123.7930 N   0  0  0  0  0  0  0  0  0  0  0  0
   12.1650   40.1070  122.6530 C   0  0  0  0  0  0  0  0  0  0  0  0
   11.9430   39.5200  121.5970 O   0  0  0  0  0  0  0  0  0  0  0  0
   12.8340   39.9340  124.5950 H   0  0  0  0  0  0  0  0  0  0  0  0
   12.8640   37.9470  123.6930 C   0  0  1  0  0  0  0  0  0  0  0  0
   16.5630   37.8800  124.8130 C   0  0  0  0  0  0  0  0  0  0  0  0
   15.5360   38.9560  123.7270 S   0  0  0  0  0  0  0  0  0  0  0  0
   15.5100   37.0570  125.5750 C   0  0  1  0  0  0  0  0  0  0  0  0
   14.3600   37.5750  123.4680 C   0  0  1  0  0  0  0  0  0  0  0  0
   14.3620   36.7280  124.6400 N   0  0  0  0  0  4  0  0  0  0  0  0
   13.0560   37.1470  125.0220 C   0  0  0  0  0  0  0  0  0  0  0  0
   12.5700   36.8120  126.0640 O   0  0  0  0  0  0  0  0  0  0  0  0
   17.3850   38.7740  125.7450 C   0  0  0  0  0  0  0  0  0  0  0  0
   17.4970   37.0640  123.9060 C   0  0  0  0  0  0  0  0  0  0  0  0
   14.3920   35.6930  124.5330 H   0  0  0  0  0  0  0  0  0  0  0  0
   16.1090   35.7200  126.0940 C   0  0  0  0  0  0  0  0  0  0  0  0
   16.1080   35.5260  127.3280 O   0  0  0  0  0  0  0  0  0  0  0  0
   16.5400   35.0230  125.1150 O   0  0  0  0  0  0  0  0  0  0  0  0
   12.1070   41.6470  122.8590 C   0  0  2  0  0  0  0  0  0  0  0  0
   10.9170   42.1080  123.6030 N   0  0  0  0  0  0  0  0  0  0  0  0
   10.7510   43.3750  123.7380 C   0  0  0  0  0  0  0  0  0  0  0  0
    9.6200   43.8880  124.4580 C   0  0  0  0  0  0  0  0  0  0  0  0
    8.3030   43.4800  124.5300 C   0  0  0  0  0  0  0  0  0  0  0  0
    9.8020   44.9870  125.2520 O   0  0  0  0  0  0  0  0  0  0  0  0
    7.6490   44.3700  125.4130 C   0  0  0  0  0  0  0  0  0  0  0  0
    8.6050   45.2690  125.8240 C   0  0  0  0  0  0  0  0  0  0  0  0
   12.3700   42.3820  121.5590 C   0  0  0  0  0  0  0  0  0  0  0  0
   13.6330   42.3240  120.9680 C   0  0  0  0  0  0  0  0  0  0  0  0
   11.3420   43.0090  120.8460 C   0  0  0  0  0  0  0  0  0  0  0  0
   13.8290   42.8070  119.6660 C   0  0  0  0  0  0  0  0  0  0  0  0
   11.5650   43.4840  119.5480 C   0  0  0  0  0  0  0  0  0  0  0  0
   12.8010   43.3740  118.8930 C   0  0  0  0  0  0  0  0  0  0  0  0
   12.9760   43.7560  117.6910 O   0  0  0  0  0  0  0  0  0  0  0  0
  1  4  1  0  0  0  0
  2  1  1  0  0  0  0
  3  2  2  0  0  0  0
  5  1  1  1  0  0  0
  5 11  1  0  0  0  0
  6  8  1  0  0  0  0
  6 13  1  0  0  0  0
  7  6  1  0  0  0  0
  8 16  1  6  0  0  0
  9  5  1  0  0  0  0
  9  7  1  1  0  0  0
  9 10  1  0  0  0  0
 10 11  1  0  0  0  0
 10  8  1  0  0  0  0
 11 12  2  0  0  0  0
 14  6  1  0  0  0  0
 15 10  1  0  0  0  0
 16 17  1  0  0  0  0
 18 16  2  0  0  0  0
 19  2  1  6  0  0  0
 19 20  1  0  0  0  0
 20 21  2  0  0  0  0
 21 22  1  0  0  0  0
 22 23  2  0  0  0  0
 22 24  1  0  0  0  0
 23 25  1  0  0  0  0
 24 26  1  0  0  0  0
 25 26  2  0  0  0  0
 27 19  1  0  0  0  0
 28 27  2  0  0  0  0
 29 27  1  0  0  0  0
 30 28  1  0  0  0  0
 31 29  2  0  0  0  0
 32 31  1  0  0  0  0
 32 30  1  0  0  0  0
 33 32  2  0  0  0  0
M  END
>  <minimizedAffinity>
-8.06232548

>  <CNNscore>
0.518788755

>  <CNNaffinity>
5.22761679

$$$$

 OpenBabel08282617243D

 33 36  0  0  1  0  0  0  0  0999 V2000
   16.0300   38.5700  123.0130 N   0  0  0  0  0  0  0  0  0  0  0  0
   16.6540   38.0300  124.1300 C   0  0  0  0  0  0  0  0  0  0  0  0
   15.9990   37.4150  124.9680 O   0  0  0  0  0  0  0  0  0  0  0  0
   16.5890   39.2030  122.4370 H   0  0  0  0  0  0  0  0  0  0  0  0
   14.5420   38.6450  122.9470 C   0  0  1  0  0  0  0  0  0  0  0  0
   13.8520   42.4480  122.9380 C   0  0  0  0  0  0  0  0  0  0  0  0
   14.9730   41.3160  123.8620 S   0  0  0  0  0  0  0  0  0  0  0  0
   13.3660   41.5720  121.7710 C   0  0  1  0  0  0  0  0  0  0  0  0
   13.8440   39.9150  123.5190 C   0  0  1  0  0  0  0  0  0  0  0  0
   13.1670   40.1510  122.2630 N   0  0  0  0  0  4  0  0  0  0  0  0
   13.8920   39.1160  121.6060 C   0  0  0  0  0  0  0  0  0  0  0  0
   13.7960   38.9360  120.4270 O   0  0  0  0  0  0  0  0  0  0  0  0
   14.6660   43.6520  122.4580 C   0  0  0  0  0  0  0  0  0  0  0  0
   12.7550   42.9070  123.9100 C   0  0  0  0  0  0  0  0  0  0  0  0
   12.1440   39.9810  122.1840 H   0  0  0  0  0  0  0  0  0  0  0  0
   12.0090   42.0830  121.2110 C   0  0  0  0  0  0  0  0  0  0  0  0
   12.0180   43.1480  120.5570 O   0  0  0  0  0  0  0  0  0  0  0  0
   11.0670   41.2930  121.5530 O   0  0  0  0  0  0  0  0  0  0  0  0
   18.1860   38.2850  124.1920 C   0  0  2  0  0  0  0  0  0  0  0  0
   18.9990   37.0520  124.1970 N   0  0  0  0  0  0  0  0  0  0  0  0
   18.4560   35.9800  124.6530 C   0  0  0  0  0  0  0  0  0  0  0  0
   19.1960   34.7510  124.6950 C   0  0  0  0  0  0  0  0  0  0  0  0
   20.4250   34.3890  124.1780 C   0  0  0  0  0  0  0  0  0  0  0  0
   18.6500   33.6880  125.3590 O   0  0  0  0  0  0  0  0  0  0  0  0
   20.6410   33.0410  124.5480 C   0  0  0  0  0  0  0  0  0  0  0  0
   19.5310   32.6610  125.2640 C   0  0  0  0  0  0  0  0  0  0  0  0
   18.5310   39.2790  125.2850 C   0  0  0  0  0  0  0  0  0  0  0  0
   17.5410   40.1150  125.8040 C   0  0  0  0  0  0  0  0  0  0  0  0
   19.7880   39.2940  125.8980 C   0  0  0  0  0  0  0  0  0  0  0  0
   17.7880   40.8740  126.9570 C   0  0  0  0  0  0  0  0  0  0  0  0
   20.0090   40.0630  127.0480 C   0  0  0  0  0  0  0  0  0  0  0  0
   19.0140   40.8550  127.6420 C   0  0  0  0  0  0  0  0  0  0  0  0
   19.2100   41.5020  128.7210 O   0  0  0  0  0  0  0  0  0  0  0  0
  1  2  1  0  0  0  0
  2  3  2  0  0  0  0
  4  1  1  0  0  0  0
  5  1  1  6  0  0  0
  5  9  1  0  0  0  0
  6  7  1  0  0  0  0
  6 14  1  0  0  0  0
  8 16  1  1  0  0  0
  8 10  1  0  0  0  0
  8  6  1  0  0  0  0
  9  7  1  6  0  0  0
 10  9  1  0  0  0  0
 11 10  1  0  0  0  0
 11  5  1  0  0  0  0
 12 11  2  0  0  0  0
 13  6  1  0  0  0  0
 15 10  1  0  0  0  0
 16 18  1  0  0  0  0
 17 16  2  0  0  0  0
 19  2  1  1  0  0  0
 19 20  1  0  0  0  0
 19 27  1  0  0  0  0
 20 21  2  0  0  0  0
 21 22  1  0  0  0  0
 22 24  1  0  0  0  0
 23 25  1  0  0  0  0
 23 22  2  0  0  0  0
 25 26  2  0  0  0  0
 26 24  1  0  0  0  0
 27 28  1  0  0  0  0
 27 29  2  0  0  0  0
 28 30  2  0  0  0  0
 29 31  1  0  0  0  0
 30 32  1  0  0  0  0
 31 32  1  0  0  0  0
 32 33  2  0  0  0  0
M  END
>  <minimizedAffinity>
-8.89273739

>  <CNNscore>
0.494757622

>  <CNNaffinity>
5.493433

$$$$

 OpenBabel08282617243D

 33 37  0  0  1  0  0  0  0  0999 V2000
   17.7500   39.1700  123.1510 N   0  0  0  0  0  0  0  0  0  0  0  0
   18.2210   37.9320  123.5660 C   0  0  2  0  0  0  0  0  0  0  0  0
   17.5270   36.9270  123.4290 O   0  0  0  0  0  0  0  0  0  0  0  0
   18.2960   39.9870  123.4340 H   0  0  0  0  0  0  0  0  0  0  0  0
   16.3140   39.3420  122.7870 C   0  0  1  0  0  0  0  0  0  0  0  0
   14.4650   37.3290  125.5190 C   0  0  0  0  0  0  0  0  0  0  0  0
   15.9610   37.0680  124.4780 S   0  0  1  0  0  0  0  0  0  0  0  0
   14.1790   38.8300  125.3390 C   0  0  1  0  0  0  0  0  0  0  0  0
   15.3040   38.2440  123.2370 C   0  0  1  0  0  0  0  0  0  0  0  0
   14.4810   39.2260  123.9060 N   0  0  0  0  0  4  0  0  0  0  0  0
   15.4340   40.2620  123.6940 C   0  0  0  0  0  0  0  0  0  0  0  0
   15.2980   41.3480  124.1790 O   0  0  0  0  0  0  0  0  0  0  0  0
   14.8130   36.9760  126.9670 C   0  0  0  0  0  0  0  0  0  0  0  0
   13.3670   36.3890  124.9960 C   0  0  0  0  0  0  0  0  0  0  0  0
   13.5600   39.4940  123.5030 H   0  0  0  0  0  0  0  0  0  0  0  0
   12.6870   39.1570  125.6260 C   0  0  0  0  0  0  0  0  0  0  0  0
   12.1640   38.6350  126.6340 O   0  0  0  0  0  0  0  0  0  0  0  0
   12.2240   39.9280  124.7200 O   0  0  0  0  0  0  0  0  0  0  0  0
   19.6440   37.9660  124.1900 C   0  0  2  0  0  0  0  0  0  0  0  0
   20.2520   36.6320  124.3730 N   0  0  0  0  0  0  0  0  0  0  0  0
   19.4610   35.6230  124.4600 C   0  0  0  0  0  0  0  0  0  0  0  0
   19.9870   34.3000  124.6480 C   0  0  0  0  0  0  0  0  0  0  0  0
   19.5820   33.2440  125.4420 C   0  0  0  0  0  0  0  0  0  0  0  0
   21.0970   33.9380  123.9380 O   0  0  0  0  0  0  0  0  0  0  0  0
   20.4870   32.1850  125.2020 C   0  0  0  0  0  0  0  0  0  0  0  0
   21.3910   32.6580  124.2800 C   0  0  0  0  0  0  0  0  0  0  0  0
   19.6810   38.8550  125.4190 C   0  0  0  0  0  0  0  0  0  0  0  0
   19.1630   40.1500  125.3580 C   0  0  0  0  0  0  0  0  0  0  0  0
   20.0910   38.3720  126.6660 C   0  0  0  0  0  0  0  0  0  0  0  0
   18.9860   40.8980  126.5300 C   0  0  0  0  0  0  0  0  0  0  0  0
   19.9040   39.1410  127.8220 C   0  0  0  0  0  0  0  0  0  0  0  0
   19.3170   40.4150  127.8080 C   0  0  0  0  0  0  0  0  0  0  0  0
   19.0990   41.0790  128.8720 O   0  0  0  0  0  0  0  0  0  0  0  0
  1  4  1  0  0  0  0
  1  2  1  0  0  0  0
  2 19  1  1  0  0  0
  3  2  1  0  0  0  0
  5  1  1  0  0  0  0
  5  9  1  0  0  0  0
  5 11  1  1  0  0  0
  6 13  1  0  0  0  0
  7  3  1  1  0  0  0
  7  6  1  0  0  0  0
  8  6  1  0  0  0  0
  8 16  1  6  0  0  0
  9 10  1  1  0  0  0
  9  7  1  0  0  0  0
 10  8  1  0  0  0  0
 11 10  1  0  0  0  0
 11 12  2  0  0  0  0
 14  6  1  0  0  0  0
 15 10  1  0  0  0  0
 16 17  1  0  0  0  0
 18 16  2  0  0  0  0
 19 20  1  1  0  0  0
 19 27  1  0  0  0  0
 20 21  2  0  0  0  0
 21 22  1  0  0  0  0
 22 23  2  0  0  0  0
 24 26  1  0  0  0  0
 24 22  1  0  0  0  0
 25 23  1  0  0  0  0
 26 25  2  0  0  0  0
 27 29  2  0  0  0  0
 28 27  1  0  0  0  0
 28 30  2  0  0  0  0
 29 31  1  0  0  0  0
 30 32  1  0  0  0  0
 32 31  1  0  0  0  0
 32 33  2  0  0  0  0
M  END
>  <minimizedAffinity>
-7.49566936

>  <CNNscore>
0.491207361

>  <CNNaffinity>
4.91551161

$$$$

 OpenBabel08282617243D

 33 36  0  0  1  0  0  0  0  0999 V2000
   12.9850   39.9300  123.6030 N   0  0  0  0  0  0  0  0  0  0  0  0
   12.5920   40.4590  122.3810 C   0  0  0  0  0  0  0  0  0  0  0  0
   12.0140   39.7530  121.5580 O   0  0  0  0  0  0  0  0  0  0  0  0
   13.5980   40.5110  124.1790 H   0  0  0  0  0  0  0  0  0  0  0  0
   12.9550   38.4560  123.8270 C   0  0  1  0  0  0  0  0  0  0  0  0
   16.6770   37.5770  124.3890 C   0  0  0  0  0  0  0  0  0  0  0  0
   15.7400   38.6490  123.2210 S   0  0  0  0  0  0  0  0  0  0  0  0
   15.6370   37.2650  125.4780 C   0  0  1  0  0  0  0  0  0  0  0  0
   14.2390   37.6360  123.4940 C   0  0  1  0  0  0  0  0  0  0  0  0
   14.2770   37.0870  124.8310 N   0  0  0  0  0  4  0  0  0  0  0  0
   13.2180   37.9300  125.2750 C   0  0  0  0  0  0  0  0  0  0  0  0
   12.8910   37.9720  126.4260 O   0  0  0  0  0  0  0  0  0  0  0  0
   17.8650   38.3760  124.9340 C   0  0  0  0  0  0  0  0  0  0  0  0
   17.1800   36.3590  123.5980 C   0  0  0  0  0  0  0  0  0  0  0  0
   14.0330   36.0880  124.9910 H   0  0  0  0  0  0  0  0  0  0  0  0
   15.9890   35.9520  126.2320 C   0  0  0  0  0  0  0  0  0  0  0  0
   17.1550   35.5160  126.1220 O   0  0  0  0  0  0  0  0  0  0  0  0
   14.9620   35.5120  126.8500 O   0  0  0  0  0  0  0  0  0  0  0  0
   12.9510   41.9590  122.1890 C   0  0  2  0  0  0  0  0  0  0  0  0
   13.5180   42.5990  123.3940 N   0  0  0  0  0  0  0  0  0  0  0  0
   14.7490   42.9640  123.3530 C   0  0  0  0  0  0  0  0  0  0  0  0
   15.3630   43.5830  124.4940 C   0  0  0  0  0  0  0  0  0  0  0  0
   16.0620   43.0640  125.5670 C   0  0  0  0  0  0  0  0  0  0  0  0
   15.2900   44.9430  124.6110 O   0  0  0  0  0  0  0  0  0  0  0  0
   16.4370   44.1620  126.3770 C   0  0  0  0  0  0  0  0  0  0  0  0
   15.9420   45.2820  125.7520 C   0  0  0  0  0  0  0  0  0  0  0  0
   11.8060   42.7170  121.5440 C   0  0  0  0  0  0  0  0  0  0  0  0
   12.0190   43.4270  120.3610 C   0  0  0  0  0  0  0  0  0  0  0  0
   10.4950   42.6160  122.0210 C   0  0  0  0  0  0  0  0  0  0  0  0
   10.9330   43.9410  119.6400 C   0  0  0  0  0  0  0  0  0  0  0  0
    9.4280   43.1410  121.2810 C   0  0  0  0  0  0  0  0  0  0  0  0
    9.5970   43.7930  120.0490 C   0  0  0  0  0  0  0  0  0  0  0  0
    8.6140   44.2130  119.3580 O   0  0  0  0  0  0  0  0  0  0  0  0
  1  4  1  0  0  0  0
  2  1  1  0  0  0  0
  3  2  2  0  0  0  0
  5  1  1  1  0  0  0
  5 11  1  0  0  0  0
  6 13  1  0  0  0  0
  6  8  1  0  0  0  0
  7  6  1  0  0  0  0
  8 16  1  6  0  0  0
  9  7  1  1  0  0  0
  9  5  1  0  0  0  0
  9 10  1  0  0  0  0
 10 15  1  0  0  0  0
 10 11  1  0  0  0  0
 10  8  1  0  0  0  0
 11 12  2  0  0  0  0
 14  6  1  0  0  0  0
 16 18  1  0  0  0  0
 17 16  2  0  0  0  0
 19  2  1  1  0  0  0
 19 20  1  0  0  0  0
 21 20  2  0  0  0  0
 21 22  1  0  0  0  0
 22 24  1  0  0  0  0
 22 23  2  0  0  0  0
 23 25  1  0  0  0  0
 24 26  1  0  0  0  0
 26 25  2  0  0  0  0
 27 29  1  0  0  0  0
 27 19  1  0  0  0  0
 28 27  2  0  0  0  0
 30 32  1  0  0  0  0
 30 28  1  0  0  0  0
 31 29  2  0  0  0  0
 32 31  1  0  0  0  0
 33 32  2  0  0  0  0
M  END
>  <minimizedAffinity>
-7.27842093

>  <CNNscore>
0.403344363

>  <CNNaffinity>
5.17700434

$$$$

 OpenBabel08282617243D

 33 36  0  0  1  0  0  0  0  0999 V2000
   14.6420   37.5750  122.9020 N   0  0  0  0  0  0  0  0  0  0  0  0
   13.7390   38.4340  122.2900 C   0  0  0  0  0  0  0  0  0  0  0  0
   14.0420   39.0090  121.2460 O   0  0  0  0  0  0  0  0  0  0  0  0
   14.4030   37.2530  123.8420 H   0  0  0  0  0  0  0  0  0  0  0  0
   16.0650   37.5420  122.4590 C   0  0  1  0  0  0  0  0  0  0  0  0
   17.8340   39.8410  125.0140 C   0  0  0  0  0  0  0  0  0  0  0  0
   16.2630   39.9030  124.0540 S   0  0  0  0  0  0  0  0  0  0  0  0
   18.2700   38.3740  124.8640 C   0  0  1  0  0  0  0  0  0  0  0  0
   16.9740   38.7570  122.8150 C   0  0  1  0  0  0  0  0  0  0  0  0
   17.9340   37.8940  123.4650 N   0  0  0  0  0  4  0  0  0  0  0  0
   17.0880   36.7550  123.3420 C   0  0  0  0  0  0  0  0  0  0  0  0
   17.3670   35.7090  123.8520 O   0  0  0  0  0  0  0  0  0  0  0  0
   17.5290   40.2100  126.4680 C   0  0  0  0  0  0  0  0  0  0  0  0
   18.7930   40.8730  124.3980 C   0  0  0  0  0  0  0  0  0  0  0  0
   18.8550   37.7100  123.0180 H   0  0  0  0  0  0  0  0  0  0  0  0
   19.8020   38.2180  125.0740 C   0  0  0  0  0  0  0  0  0  0  0  0
   20.4890   37.8780  124.0880 O   0  0  0  0  0  0  0  0  0  0  0  0
   20.1050   38.4580  126.2910 O   0  0  0  0  0  0  0  0  0  0  0  0
   12.3850   38.5780  123.0380 C   0  0  2  0  0  0  0  0  0  0  0  0
   11.8030   39.9340  122.9700 N   0  0  0  0  0  0  0  0  0  0  0  0
   11.1460   40.3530  123.9920 C   0  0  0  0  0  0  0  0  0  0  0  0
   10.5470   41.6580  123.9860 C   0  0  0  0  0  0  0  0  0  0  0  0
    9.3060   42.1070  123.5780 C   0  0  0  0  0  0  0  0  0  0  0  0
   11.2780   42.7090  124.4650 O   0  0  0  0  0  0  0  0  0  0  0  0
    9.2770   43.5000  123.8220 C   0  0  0  0  0  0  0  0  0  0  0  0
   10.5020   43.8170  124.3610 C   0  0  0  0  0  0  0  0  0  0  0  0
   12.4670   37.9890  124.4330 C   0  0  0  0  0  0  0  0  0  0  0  0
   12.1500   36.6460  124.6430 C   0  0  0  0  0  0  0  0  0  0  0  0
   12.9890   38.7140  125.5100 C   0  0  0  0  0  0  0  0  0  0  0  0
   12.4330   36.0360  125.8730 C   0  0  0  0  0  0  0  0  0  0  0  0
   13.2600   38.0800  126.7290 C   0  0  0  0  0  0  0  0  0  0  0  0
   13.0270   36.7140  126.9510 C   0  0  0  0  0  0  0  0  0  0  0  0
   13.3330   36.1370  128.0430 O   0  0  0  0  0  0  0  0  0  0  0  0
  1  4  1  0  0  0  0
  2  1  1  0  0  0  0
  3  2  2  0  0  0  0
  5  9  1  0  0  0  0
  5  1  1  1  0  0  0
  5 11  1  0  0  0  0
  6 13  1  0  0  0  0
  7  6  1  0  0  0  0
  8  6  1  0  0  0  0
  8 16  1  6  0  0  0
  9 10  1  0  0  0  0
  9  7  1  1  0  0  0
 10  8  1  0  0  0  0
 11 10  1  0  0  0  0
 11 12  2  0  0  0  0
 14  6  1  0  0  0  0
 15 10  1  0  0  0  0
 16 18  1  0  0  0  0
 17 16  2  0  0  0  0
 19  2  1  1  0  0  0
 19 27  1  0  0  0  0
 20 19  1  0  0  0  0
 20 21  2  0  0  0  0
 22 21  1  0  0  0  0
 22 24  1  0  0  0  0
 23 25  1  0  0  0  0
 23 22  2  0  0  0  0
 25 26  2  0  0  0  0
 26 24  1  0  0  0  0
 27 28  1  0  0  0  0
 27 29  2  0  0  0  0
 28 30  2  0  0  0  0
 29 31  1  0  0  0  0
 30 32  1  0  0  0  0
 31 32  1  0  0  0  0
 32 33  2  0  0  0  0
M  END
>  <minimizedAffinity>
-8.87896729

>  <CNNscore>
0.382107794

>  <CNNaffinity>
5.51452494

$$$$

 OpenBabel08282617243D

 33 36  0  0  1  0  0  0  0  0999 V2000
   13.7750   40.0210  122.0900 N   0  0  0  0  0  0  0  0  0  0  0  0
   12.6390   40.7470  121.7620 C   0  0  0  0  0  0  0  0  0  0  0  0
   11.5260   40.2360  121.8670 O   0  0  0  0  0  0  0  0  0  0  0  0
   14.6740   40.4350  121.8330 H   0  0  0  0  0  0  0  0  0  0  0  0
   13.6880   38.5490  122.3130 C   0  0  1  0  0  0  0  0  0  0  0  0
   16.8620   37.7830  124.3820 C   0  0  0  0  0  0  0  0  0  0  0  0
   16.4690   38.8150  122.9080 S   0  0  0  0  0  0  0  0  0  0  0  0
   15.4710   37.4520  124.9500 C   0  0  1  0  0  0  0  0  0  0  0  0
   15.0110   37.7630  122.5580 C   0  0  1  0  0  0  0  0  0  0  0  0
   14.5040   37.2290  123.8030 N   0  0  0  0  0  4  0  0  0  0  0  0
   13.3390   38.0460  123.7520 C   0  0  0  0  0  0  0  0  0  0  0  0
   12.5640   38.0910  124.6630 O   0  0  0  0  0  0  0  0  0  0  0  0
   17.6990   38.6200  125.3520 C   0  0  0  0  0  0  0  0  0  0  0  0
   17.6720   36.5710  123.8950 C   0  0  0  0  0  0  0  0  0  0  0  0
   14.2380   36.2250  123.8690 H   0  0  0  0  0  0  0  0  0  0  0  0
   15.5080   36.1580  125.8100 C   0  0  0  0  0  0  0  0  0  0  0  0
   15.8920   35.1060  125.2560 O   0  0  0  0  0  0  0  0  0  0  0  0
   15.0960   36.4050  126.9930 O   0  0  0  0  0  0  0  0  0  0  0  0
   12.9240   42.1940  121.2720 C   0  0  2  0  0  0  0  0  0  0  0  0
   13.0870   42.3110  119.8090 N   0  0  0  0  0  0  0  0  0  0  0  0
   12.4670   43.2660  119.2130 C   0  0  0  0  0  0  0  0  0  0  0  0
   12.5750   43.4280  117.7900 C   0  0  0  0  0  0  0  0  0  0  0  0
   13.4090   42.8520  116.8520 C   0  0  0  0  0  0  0  0  0  0  0  0
   11.7210   44.2980  117.1710 O   0  0  0  0  0  0  0  0  0  0  0  0
   13.0440   43.3940  115.5970 C   0  0  0  0  0  0  0  0  0  0  0  0
   12.0130   44.2690  115.8460 C   0  0  0  0  0  0  0  0  0  0  0  0
   14.0260   42.8400  122.0890 C   0  0  0  0  0  0  0  0  0  0  0  0
   13.7830   43.2230  123.4090 C   0  0  0  0  0  0  0  0  0  0  0  0
   15.3360   42.9410  121.6090 C   0  0  0  0  0  0  0  0  0  0  0  0
   14.8430   43.6110  124.2400 C   0  0  0  0  0  0  0  0  0  0  0  0
   16.3770   43.3340  122.4600 C   0  0  0  0  0  0  0  0  0  0  0  0
   16.1810   43.6510  123.8130 C   0  0  0  0  0  0  0  0  0  0  0  0
   17.1440   43.9490  124.5920 O   0  0  0  0  0  0  0  0  0  0  0  0
  2  3  2  0  0  0  0
  2  1  1  0  0  0  0
  4  1  1  0  0  0  0
  5  1  1  1  0  0  0
  5  9  1  0  0  0  0
  5 11  1  0  0  0  0
  6  8  1  0  0  0  0
  6 13  1  0  0  0  0
  7  6  1  0  0  0  0
  8 16  1  6  0  0  0
  9  7  1  1  0  0  0
  9 10  1  0  0  0  0
 10 15  1  0  0  0  0
 10  8  1  0  0  0  0
 11 10  1  0  0  0  0
 11 12  2  0  0  0  0
 14  6  1  0  0  0  0
 16 18  1  0  0  0  0
 17 16  2  0  0  0  0
 19 20  1  6  0  0  0
 19  2  1  0  0  0  0
 19 27  1  0  0  0  0
 21 20  2  0  0  0  0
 22 21  1  0  0  0  0
 23 22  2  0  0  0  0
 24 22  1  0  0  0  0
 25 26  2  0  0  0  0
 25 23  1  0  0  0  0
 26 24  1  0  0  0  0
 27 28  1  0  0  0  0
 28 30  2  0  0  0  0
 29 27  2  0  0  0  0
 29 31  1  0  0  0  0
 31 32  1  0  0  0  0
 32 30  1  0  0  0  0
 32 33  2  0  0  0  0
M  END
>  <minimizedAffinity>
-8.10785103

>  <CNNscore>
0.374168128

>  <CNNaffinity>
5.26463461

$$$$
