
 OpenBabel08282605313D

 33 34  0  0  1  0  0  0  0  0999 V2000
   17.7840   34.6380  126.3460 C   0  0  0  0  0  0  0  0  0  0  0  0
   16.4560   34.7880  126.5460 C   0  0  0  0  0  0  0  0  0  0  0  0
   18.4900   35.7890  125.7350 C   0  0  0  0  0  0  0  0  0  0  0  0
   18.4920   37.6050  124.1330 C   0  0  0  0  0  0  0  0  0  0  0  0
   19.7180   38.0460  124.6440 C   0  0  0  0  0  0  0  0  0  0  0  0
   17.8790   36.4830  124.6810 C   0  0  0  0  0  0  0  0  0  0  0  0
   20.3390   37.3480  125.6830 C   0  0  0  0  0  0  0  0  0  0  0  0
   19.7250   36.2240  126.2310 C   0  0  0  0  0  0  0  0  0  0  0  0
   17.7720   38.3100  123.1230 N   0  0  0  0  0  0  0  0  0  0  0  0
   15.8550   39.3200  122.3340 N   0  0  0  0  0  0  0  0  0  0  0  0
   16.7550   39.1970  123.3460 C   0  0  2  0  0  0  0  0  0  0  0  0
   16.7470   39.8940  124.4980 N   0  0  0  0  0  0  0  0  0  0  0  0
   16.0800   41.1570  124.6860 C   0  0  0  0  0  0  0  0  0  0  0  0
   15.5890   42.1840  124.8940 N   0  0  0  0  0  0  0  0  0  0  0  0
   16.1860   38.9770  121.4400 H   0  0  0  0  0  0  0  0  0  0  0  0
   18.0330   38.0880  122.1640 H   0  0  0  0  0  0  0  0  0  0  0  0
   17.5040   39.7430  125.1520 H   0  0  0  0  0  0  0  0  0  0  0  0
   14.3540   39.5100  122.3550 C   0  0  0  0  0  0  0  0  0  0  0  0
   13.9270   40.9650  122.1580 C   0  0  0  0  0  0  0  0  0  0  0  0
   13.8830   39.0840  123.7670 C   0  0  0  0  0  0  0  0  0  0  0  0
   13.6970   38.5730  121.3370 C   0  0  0  0  0  0  0  0  0  0  0  0
   18.4540   33.3410  126.6700 C   0  0  0  0  0  0  0  0  0  0  0  0
   18.4980   32.2510  125.7880 C   0  0  0  0  0  0  0  0  0  0  0  0
   19.1490   33.1710  127.8730 C   0  0  0  0  0  0  0  0  0  0  0  0
   19.1730   31.0810  126.1400 C   0  0  0  0  0  0  0  0  0  0  0  0
   19.8270   32.0540  128.2410 N   0  0  0  0  0  0  0  0  0  0  0  0
   19.8170   31.0320  127.3630 C   0  0  0  0  0  0  0  0  0  0  0  0
   15.5930   35.9860  126.2110 C   0  0  0  0  0  0  0  0  0  0  0  0
   14.1990   35.6270  125.6690 C   0  0  0  0  0  0  0  0  0  0  0  0
   13.0480   35.8020  126.6670 C   0  0  0  0  0  0  0  0  0  0  0  0
   13.2390   37.0770  127.5010 C   0  0  0  0  0  0  0  0  0  0  0  0
   12.7550   38.1320  126.9950 O   0  0  0  0  0  0  0  0  0  0  0  0
   13.8160   36.9050  128.6160 O   0  0  0  0  0  0  0  0  0  0  0  0
  1  2  2  0  0  0  0
  1 22  1  0  0  0  0
  3  8  1  0  0  0  0
  3  1  1  0  0  0  0
  4  5  2  0  0  0  0
  4  6  1  0  0  0  0
  5  7  1  0  0  0  0
  6  3  2  0  0  0  0
  7  8  2  0  0  0  0
  9 11  1  0  0  0  0
  9  4  1  0  0  0  0
 10 18  1  0  0  0  0
 11 10  1  6  0  0  0
 11 12  1  0  0  0  0
 12 13  1  0  0  0  0
 12 17  1  0  0  0  0
 13 14  3  0  0  0  0
 15 10  1  0  0  0  0
 16  9  1  0  0  0  0
 18 20  1  0  0  0  0
 19 18  1  0  0  0  0
 21 18  1  0  0  0  0
 22 24  1  0  0  0  0
 23 25  1  0  0  0  0
 23 22  2  0  0  0  0
 24 26  2  0  0  0  0
 25 27  2  0  0  0  0
 27 26  1  0  0  0  0
 28  2  1  0  0  0  0
 29 28  1  0  0  0  0
 29 30  1  0  0  0  0
 30 31  1  0  0  0  0
 31 33  1  0  0  0  0
 32 31  2  0  0  0  0
M  END
>  <minimizedAffinity>
-8.21209621

>  <CNNscore>
0.464799076

>  <CNNaffinity>
6.613832

$$$$

 OpenBabel08282605313D

 33 34  0  0  1  0  0  0  0  0999 V2000
   18.1270   33.9850  126.4910 C   0  0  0  0  0  0  0  0  0  0  0  0
   16.8640   34.4390  126.6450 C   0  0  0  0  0  0  0  0  0  0  0  0
   19.0260   34.8140  125.6540 C   0  0  0  0  0  0  0  0  0  0  0  0
   19.4090   36.8740  124.4390 C   0  0  0  0  0  0  0  0  0  0  0  0
   20.7270   36.4750  124.1910 C   0  0  0  0  0  0  0  0  0  0  0  0
   18.5640   36.0480  125.1720 C   0  0  0  0  0  0  0  0  0  0  0  0
   21.1870   35.2380  124.6530 C   0  0  0  0  0  0  0  0  0  0  0  0
   20.3400   34.4120  125.3880 C   0  0  0  0  0  0  0  0  0  0  0  0
   18.8980   38.1500  124.0560 N   0  0  0  0  0  0  0  0  0  0  0  0
   17.9400   40.1840  124.5690 N   0  0  0  0  0  0  0  0  0  0  0  0
   18.9190   39.2780  124.8300 C   0  0  2  0  0  0  0  0  0  0  0  0
   19.9050   39.4210  125.7360 N   0  0  0  0  0  0  0  0  0  0  0  0
   20.3560   40.6850  126.2620 C   0  0  0  0  0  0  0  0  0  0  0  0
   20.7810   41.6670  126.7020 N   0  0  0  0  0  0  0  0  0  0  0  0
   17.4970   40.0670  123.6640 H   0  0  0  0  0  0  0  0  0  0  0  0
   18.4550   38.1870  123.1410 H   0  0  0  0  0  0  0  0  0  0  0  0
   20.6030   38.6920  125.8010 H   0  0  0  0  0  0  0  0  0  0  0  0
   17.1340   41.0730  125.4900 C   0  0  0  0  0  0  0  0  0  0  0  0
   17.1440   40.6010  126.9440 C   0  0  0  0  0  0  0  0  0  0  0  0
   15.6700   40.9980  124.9950 C   0  0  0  0  0  0  0  0  0  0  0  0
   17.6040   42.5250  125.3530 C   0  0  0  0  0  0  0  0  0  0  0  0
   18.5360   32.6750  127.0870 C   0  0  0  0  0  0  0  0  0  0  0  0
   19.4030   32.5600  128.1820 C   0  0  0  0  0  0  0  0  0  0  0  0
   18.0030   31.4710  126.6120 C   0  0  0  0  0  0  0  0  0  0  0  0
   19.7150   31.3060  128.7120 C   0  0  0  0  0  0  0  0  0  0  0  0
   18.2710   30.2380  127.1110 N   0  0  0  0  0  0  0  0  0  0  0  0
   19.1280   30.1880  128.1490 C   0  0  0  0  0  0  0  0  0  0  0  0
   16.2460   35.6900  126.0570 C   0  0  0  0  0  0  0  0  0  0  0  0
   14.7150   35.6280  125.9120 C   0  0  0  0  0  0  0  0  0  0  0  0
   13.9890   36.9640  126.1090 C   0  0  0  0  0  0  0  0  0  0  0  0
   13.3080   37.0180  127.4840 C   0  0  0  0  0  0  0  0  0  0  0  0
   13.7820   36.2280  128.3540 O   0  0  0  0  0  0  0  0  0  0  0  0
   12.3870   37.8810  127.5910 O   0  0  0  0  0  0  0  0  0  0  0  0
  1  2  2  0  0  0  0
  1 22  1  0  0  0  0
  3  1  1  0  0  0  0
  4  6  1  0  0  0  0
  5  4  2  0  0  0  0
  5  7  1  0  0  0  0
  6  3  2  0  0  0  0
  7  8  2  0  0  0  0
  8  3  1  0  0  0  0
  9  4  1  0  0  0  0
 10 11  1  0  0  0  0
 10 18  1  0  0  0  0
 11  9  1  6  0  0  0
 11 12  1  0  0  0  0
 12 17  1  0  0  0  0
 12 13  1  0  0  0  0
 13 14  3  0  0  0  0
 15 10  1  0  0  0  0
 16  9  1  0  0  0  0
 18 19  1  0  0  0  0
 20 18  1  0  0  0  0
 21 18  1  0  0  0  0
 22 23  1  0  0  0  0
 23 25  2  0  0  0  0
 24 22  2  0  0  0  0
 24 26  1  0  0  0  0
 26 27  2  0  0  0  0
 27 25  1  0  0  0  0
 28  2  1  0  0  0  0
 29 28  1  0  0  0  0
 29 30  1  0  0  0  0
 30 31  1  0  0  0  0
 31 33  2  0  0  0  0
 31 32  1  0  0  0  0
M  END
>  <minimizedAffinity>
-7.86602449

>  <CNNscore>
0.46109128

>  <CNNaffinity>
6.78565741

$$$$

 OpenBabel08282605313D

 33 34  0  0  1  0  0  0  0  0999 V2000
   17.2530   39.5620  125.5750 C   0  0  0  0  0  0  0  0  0  0  0  0
   15.9950   40.0330  125.4350 C   0  0  0  0  0  0  0  0  0  0  0  0
   17.5100   38.2050  125.0380 C   0  0  0  0  0  0  0  0  0  0  0  0
   18.3100   35.9490  125.4080 C   0  0  0  0  0  0  0  0  0  0  0  0
   17.8910   35.5960  124.1200 C   0  0  0  0  0  0  0  0  0  0  0  0
   18.1160   37.2480  125.8660 C   0  0  0  0  0  0  0  0  0  0  0  0
   17.3030   36.5510  123.2850 C   0  0  0  0  0  0  0  0  0  0  0  0
   17.1090   37.8520  123.7450 C   0  0  0  0  0  0  0  0  0  0  0  0
   18.8520   35.0080  126.3340 N   0  0  0  0  0  0  0  0  0  0  0  0
   19.2800   32.8440  127.0050 N   0  0  0  0  0  0  0  0  0  0  0  0
   19.3420   33.7720  126.0140 C   0  0  2  0  0  0  0  0  0  0  0  0
   19.8760   33.5860  124.7910 N   0  0  0  0  0  0  0  0  0  0  0  0
   20.8350   32.5620  124.4640 C   0  0  0  0  0  0  0  0  0  0  0  0
   21.6260   31.7800  124.1440 N   0  0  0  0  0  0  0  0  0  0  0  0
   19.1550   33.2350  127.9320 H   0  0  0  0  0  0  0  0  0  0  0  0
   18.8270   35.2930  127.3110 H   0  0  0  0  0  0  0  0  0  0  0  0
   19.9040   34.3740  124.1580 H   0  0  0  0  0  0  0  0  0  0  0  0
   18.9810   31.3610  126.9630 C   0  0  0  0  0  0  0  0  0  0  0  0
   18.1530   30.8790  128.1540 C   0  0  0  0  0  0  0  0  0  0  0  0
   20.3500   30.6420  127.0360 C   0  0  0  0  0  0  0  0  0  0  0  0
   18.3300   31.0000  125.6240 C   0  0  0  0  0  0  0  0  0  0  0  0
   18.2830   40.3670  126.3020 C   0  0  0  0  0  0  0  0  0  0  0  0
   19.6160   40.4820  125.8810 C   0  0  0  0  0  0  0  0  0  0  0  0
   17.9410   41.1220  127.4300 C   0  0  0  0  0  0  0  0  0  0  0  0
   20.5170   41.2800  126.5880 C   0  0  0  0  0  0  0  0  0  0  0  0
   18.7860   41.9200  128.1320 N   0  0  0  0  0  0  0  0  0  0  0  0
   20.0580   41.9730  127.6930 C   0  0  0  0  0  0  0  0  0  0  0  0
   14.8050   39.3380  124.8050 C   0  0  0  0  0  0  0  0  0  0  0  0
   14.3950   38.0310  125.5070 C   0  0  0  0  0  0  0  0  0  0  0  0
   13.2840   38.1750  126.5520 C   0  0  0  0  0  0  0  0  0  0  0  0
   13.1160   36.8760  127.3530 C   0  0  0  0  0  0  0  0  0  0  0  0
   12.3940   35.9920  126.8040 O   0  0  0  0  0  0  0  0  0  0  0  0
   13.7590   36.8330  128.4440 O   0  0  0  0  0  0  0  0  0  0  0  0
  1 22  1  0  0  0  0
  2  1  2  0  0  0  0
  3  1  1  0  0  0  0
  3  6  1  0  0  0  0
  4  6  2  0  0  0  0
  4  9  1  0  0  0  0
  5  4  1  0  0  0  0
  7  8  1  0  0  0  0
  7  5  2  0  0  0  0
  8  3  2  0  0  0  0
  9 16  1  0  0  0  0
 10 15  1  0  0  0  0
 11 12  1  1  0  0  0
 11  9  1  0  0  0  0
 11 10  1  0  0  0  0
 13 12  1  0  0  0  0
 14 13  3  0  0  0  0
 17 12  1  0  0  0  0
 18 10  1  0  0  0  0
 18 20  1  0  0  0  0
 18 19  1  0  0  0  0
 21 18  1  0  0  0  0
 22 24  1  0  0  0  0
 23 22  2  0  0  0  0
 23 25  1  0  0  0  0
 24 26  2  0  0  0  0
 25 27  2  0  0  0  0
 27 26  1  0  0  0  0
 28  2  1  0  0  0  0
 28 29  1  0  0  0  0
 29 30  1  0  0  0  0
 30 31  1  0  0  0  0
 31 33  1  0  0  0  0
 32 31  2  0  0  0  0
M  END
>  <minimizedAffinity>
-8.65884495

>  <CNNscore>
0.408108503

>  <CNNaffinity>
6.72201681

$$$$

 OpenBabel08282605313D

 33 34  0  0  1  0  0  0  0  0999 V2000
   18.0810   34.6250  125.9930 C   0  0  0  0  0  0  0  0  0  0  0  0
   16.7700   34.4420  126.2590 C   0  0  0  0  0  0  0  0  0  0  0  0
   18.4770   35.9780  125.5370 C   0  0  0  0  0  0  0  0  0  0  0  0
   17.9450   38.3310  125.3260 C   0  0  0  0  0  0  0  0  0  0  0  0
   19.2280   38.5700  124.8200 C   0  0  0  0  0  0  0  0  0  0  0  0
   17.5740   37.0400  125.6870 C   0  0  0  0  0  0  0  0  0  0  0  0
   20.1260   37.5110  124.6520 C   0  0  0  0  0  0  0  0  0  0  0  0
   19.7530   36.2190  125.0140 C   0  0  0  0  0  0  0  0  0  0  0  0
   17.0060   39.3730  125.5870 N   0  0  0  0  0  0  0  0  0  0  0  0
   16.4570   41.6060  125.7640 N   0  0  0  0  0  0  0  0  0  0  0  0
   17.0260   40.6200  125.0230 C   0  0  2  0  0  0  0  0  0  0  0  0
   17.5540   40.7620  123.7910 N   0  0  0  0  0  0  0  0  0  0  0  0
   17.2330   41.8330  122.8820 C   0  0  0  0  0  0  0  0  0  0  0  0
   16.9990   42.6510  122.0980 N   0  0  0  0  0  0  0  0  0  0  0  0
   15.8380   41.2720  126.4940 H   0  0  0  0  0  0  0  0  0  0  0  0
   16.2940   39.1570  126.2810 H   0  0  0  0  0  0  0  0  0  0  0  0
   17.9050   39.9360  123.3250 H   0  0  0  0  0  0  0  0  0  0  0  0
   16.8480   43.0540  125.9620 C   0  0  0  0  0  0  0  0  0  0  0  0
   16.6520   43.5410  127.3980 C   0  0  0  0  0  0  0  0  0  0  0  0
   15.9010   43.8860  125.0650 C   0  0  0  0  0  0  0  0  0  0  0  0
   18.2810   43.2770  125.4680 C   0  0  0  0  0  0  0  0  0  0  0  0
   19.0380   33.4800  126.0960 C   0  0  0  0  0  0  0  0  0  0  0  0
   19.3450   32.8310  127.3010 C   0  0  0  0  0  0  0  0  0  0  0  0
   19.6380   32.9390  124.9520 C   0  0  0  0  0  0  0  0  0  0  0  0
   20.2200   31.7440  127.3190 C   0  0  0  0  0  0  0  0  0  0  0  0
   20.4810   31.8760  124.9310 N   0  0  0  0  0  0  0  0  0  0  0  0
   20.7550   31.3070  126.1210 C   0  0  0  0  0  0  0  0  0  0  0  0
   15.6460   35.4500  126.1360 C   0  0  0  0  0  0  0  0  0  0  0  0
   14.7200   35.5140  127.3640 C   0  0  0  0  0  0  0  0  0  0  0  0
   14.1500   36.9020  127.6760 C   0  0  0  0  0  0  0  0  0  0  0  0
   12.8280   37.1300  126.9280 C   0  0  0  0  0  0  0  0  0  0  0  0
   12.1890   36.0790  126.6250 O   0  0  0  0  0  0  0  0  0  0  0  0
   12.5180   38.3460  126.7490 O   0  0  0  0  0  0  0  0  0  0  0  0
  1 22  1  0  0  0  0
  1  2  2  0  0  0  0
  3  6  1  0  0  0  0
  3  1  1  0  0  0  0
  4  9  1  0  0  0  0
  4  6  2  0  0  0  0
  5  4  1  0  0  0  0
  7  5  2  0  0  0  0
  7  8  1  0  0  0  0
  8  3  2  0  0  0  0
  9 16  1  0  0  0  0
 10 18  1  0  0  0  0
 10 15  1  0  0  0  0
 11 12  1  6  0  0  0
 11  9  1  0  0  0  0
 11 10  1  0  0  0  0
 13 12  1  0  0  0  0
 14 13  3  0  0  0  0
 17 12  1  0  0  0  0
 18 19  1  0  0  0  0
 20 18  1  0  0  0  0
 21 18  1  0  0  0  0
 22 23  1  0  0  0  0
 23 25  2  0  0  0  0
 24 22  2  0  0  0  0
 26 24  1  0  0  0  0
 26 27  2  0  0  0  0
 27 25  1  0  0  0  0
 28  2  1  0  0  0  0
 28 29  1  0  0  0  0
 29 30  1  0  0  0  0
 31 30  1  0  0  0  0
 32 31  2  0  0  0  0
 33 31  1  0  0  0  0
M  END
>  <minimizedAffinity>
-8.26868629

>  <CNNscore>
0.281050801

>  <CNNaffinity>
6.48249102

$$$$

 OpenBabel08282605313D

 33 34  0  0  1  0  0  0  0  0999 V2000
   15.6370   37.2720  124.2290 C   0  0  0  0  0  0  0  0  0  0  0  0
   14.8890   36.3860  124.9200 C   0  0  0  0  0  0  0  0  0  0  0  0
   17.0840   37.3030  124.5500 C   0  0  0  0  0  0  0  0  0  0  0  0
   18.9730   36.3100  125.6950 C   0  0  0  0  0  0  0  0  0  0  0  0
   19.8240   37.2350  125.0790 C   0  0  0  0  0  0  0  0  0  0  0  0
   17.6090   36.3430  125.4270 C   0  0  0  0  0  0  0  0  0  0  0  0
   19.3030   38.2060  124.2180 C   0  0  0  0  0  0  0  0  0  0  0  0
   17.9370   38.2370  123.9500 C   0  0  0  0  0  0  0  0  0  0  0  0
   19.4470   35.2530  126.5270 N   0  0  0  0  0  0  0  0  0  0  0  0
   19.6150   33.0150  127.0590 N   0  0  0  0  0  0  0  0  0  0  0  0
   19.7320   33.9820  126.1110 C   0  0  2  0  0  0  0  0  0  0  0  0
   20.1390   33.7950  124.8400 N   0  0  0  0  0  0  0  0  0  0  0  0
   20.9180   32.6700  124.3870 C   0  0  0  0  0  0  0  0  0  0  0  0
   21.5630   31.8070  123.9660 N   0  0  0  0  0  0  0  0  0  0  0  0
   19.6180   33.3660  128.0110 H   0  0  0  0  0  0  0  0  0  0  0  0
   19.5360   35.4810  127.5150 H   0  0  0  0  0  0  0  0  0  0  0  0
   20.2300   34.6070  124.2450 H   0  0  0  0  0  0  0  0  0  0  0  0
   19.1080   31.5920  126.9730 C   0  0  0  0  0  0  0  0  0  0  0  0
   18.3140   31.3110  125.6980 C   0  0  0  0  0  0  0  0  0  0  0  0
   18.1390   31.4050  128.1660 C   0  0  0  0  0  0  0  0  0  0  0  0
   20.2730   30.6140  127.1550 C   0  0  0  0  0  0  0  0  0  0  0  0
   14.9920   38.2050  123.2530 C   0  0  0  0  0  0  0  0  0  0  0  0
   14.7560   37.8780  121.9100 C   0  0  0  0  0  0  0  0  0  0  0  0
   14.5180   39.4560  123.6610 C   0  0  0  0  0  0  0  0  0  0  0  0
   14.1150   38.7830  121.0620 C   0  0  0  0  0  0  0  0  0  0  0  0
   13.8790   40.3550  122.8680 N   0  0  0  0  0  0  0  0  0  0  0  0
   13.6990   39.9950  121.5830 C   0  0  0  0  0  0  0  0  0  0  0  0
   15.3440   35.4230  125.9980 C   0  0  0  0  0  0  0  0  0  0  0  0
   14.6170   35.5940  127.3430 C   0  0  0  0  0  0  0  0  0  0  0  0
   14.1070   37.0100  127.6310 C   0  0  0  0  0  0  0  0  0  0  0  0
   12.7470   37.2490  126.9570 C   0  0  0  0  0  0  0  0  0  0  0  0
   12.0210   36.2190  126.8250 O   0  0  0  0  0  0  0  0  0  0  0  0
   12.5020   38.4560  126.6600 O   0  0  0  0  0  0  0  0  0  0  0  0
  1  3  1  0  0  0  0
  1  2  2  0  0  0  0
  2 28  1  0  0  0  0
  3  6  1  0  0  0  0
  4  9  1  0  0  0  0
  5  4  1  0  0  0  0
  6  4  2  0  0  0  0
  7  5  2  0  0  0  0
  8  7  1  0  0  0  0
  8  3  2  0  0  0  0
  9 16  1  0  0  0  0
 10 15  1  0  0  0  0
 11 12  1  1  0  0  0
 11  9  1  0  0  0  0
 11 10  1  0  0  0  0
 13 12  1  0  0  0  0
 14 13  3  0  0  0  0
 17 12  1  0  0  0  0
 18 10  1  0  0  0  0
 18 21  1  0  0  0  0
 18 20  1  0  0  0  0
 19 18  1  0  0  0  0
 22 24  1  0  0  0  0
 22  1  1  0  0  0  0
 23 22  2  0  0  0  0
 25 27  2  0  0  0  0
 25 23  1  0  0  0  0
 26 24  2  0  0  0  0
 27 26  1  0  0  0  0
 28 29  1  0  0  0  0
 29 30  1  0  0  0  0
 31 30  1  0  0  0  0
 32 31  1  0  0  0  0
 33 31  2  0  0  0  0
M  END
>  <minimizedAffinity>
-8.69566631

>  <CNNscore>
0.272998393

>  <CNNaffinity>
6.18463326

$$$$

 OpenBabel08282605313D

 33 34  0  0  1  0  0  0  0  0999 V2000
   18.2540   34.4480  126.4040 C   0  0  0  0  0  0  0  0  0  0  0  0
   17.0570   34.3920  127.0270 C   0  0  0  0  0  0  0  0  0  0  0  0
   18.5680   35.7110  125.6940 C   0  0  0  0  0  0  0  0  0  0  0  0
   17.9720   37.3380  124.0010 C   0  0  0  0  0  0  0  0  0  0  0  0
   19.0350   38.1490  124.4160 C   0  0  0  0  0  0  0  0  0  0  0  0
   17.7380   36.1250  124.6410 C   0  0  0  0  0  0  0  0  0  0  0  0
   19.8750   37.7320  125.4530 C   0  0  0  0  0  0  0  0  0  0  0  0
   19.6390   36.5180  126.0940 C   0  0  0  0  0  0  0  0  0  0  0  0
   17.0380   37.7340  122.9990 N   0  0  0  0  0  0  0  0  0  0  0  0
   15.1900   38.9320  122.3130 N   0  0  0  0  0  0  0  0  0  0  0  0
   16.3920   38.9390  122.9470 C   0  0  2  0  0  0  0  0  0  0  0  0
   17.0000   40.0200  123.4730 N   0  0  0  0  0  0  0  0  0  0  0  0
   16.7210   41.3820  123.0950 C   0  0  0  0  0  0  0  0  0  0  0  0
   16.5620   42.4930  122.8170 N   0  0  0  0  0  0  0  0  0  0  0  0
   15.0440   38.1300  121.7100 H   0  0  0  0  0  0  0  0  0  0  0  0
   16.8250   37.0290  122.2970 H   0  0  0  0  0  0  0  0  0  0  0  0
   17.9200   39.9000  123.8780 H   0  0  0  0  0  0  0  0  0  0  0  0
   13.9020   39.6660  122.6140 C   0  0  0  0  0  0  0  0  0  0  0  0
   13.8070   40.1490  124.0620 C   0  0  0  0  0  0  0  0  0  0  0  0
   12.7600   38.6430  122.3980 C   0  0  0  0  0  0  0  0  0  0  0  0
   13.7070   40.8070  121.6110 C   0  0  0  0  0  0  0  0  0  0  0  0
   19.1560   33.2540  126.3930 C   0  0  0  0  0  0  0  0  0  0  0  0
   19.3910   32.4510  127.5180 C   0  0  0  0  0  0  0  0  0  0  0  0
   19.7700   32.8290  125.2100 C   0  0  0  0  0  0  0  0  0  0  0  0
   20.2170   31.3280  127.4280 C   0  0  0  0  0  0  0  0  0  0  0  0
   20.5660   31.7360  125.0820 N   0  0  0  0  0  0  0  0  0  0  0  0
   20.7730   31.0150  126.2010 C   0  0  0  0  0  0  0  0  0  0  0  0
   15.9840   35.4590  127.0800 C   0  0  0  0  0  0  0  0  0  0  0  0
   14.8420   35.2550  126.0690 C   0  0  0  0  0  0  0  0  0  0  0  0
   14.1910   36.5440  125.5550 C   0  0  0  0  0  0  0  0  0  0  0  0
   12.9210   36.8710  126.3550 C   0  0  0  0  0  0  0  0  0  0  0  0
   12.7810   38.0890  126.6720 O   0  0  0  0  0  0  0  0  0  0  0  0
   12.1480   35.8880  126.5560 O   0  0  0  0  0  0  0  0  0  0  0  0
  1  2  2  0  0  0  0
  2 28  1  0  0  0  0
  3  8  1  0  0  0  0
  3  1  1  0  0  0  0
  4  5  2  0  0  0  0
  4  6  1  0  0  0  0
  5  7  1  0  0  0  0
  6  3  2  0  0  0  0
  7  8  2  0  0  0  0
  9  4  1  0  0  0  0
 10 18  1  0  0  0  0
 11 10  1  6  0  0  0
 11  9  1  0  0  0  0
 11 12  1  0  0  0  0
 12 17  1  0  0  0  0
 13 12  1  0  0  0  0
 14 13  3  0  0  0  0
 15 10  1  0  0  0  0
 16  9  1  0  0  0  0
 18 19  1  0  0  0  0
 20 18  1  0  0  0  0
 21 18  1  0  0  0  0
 22  1  1  0  0  0  0
 22 23  1  0  0  0  0
 24 22  2  0  0  0  0
 25 23  2  0  0  0  0
 26 24  1  0  0  0  0
 26 27  2  0  0  0  0
 27 25  1  0  0  0  0
 29 28  1  0  0  0  0
 30 29  1  0  0  0  0
 30 31  1  0  0  0  0
 31 33  2  0  0  0  0
 31 32  1  0  0  0  0
M  END
>  <minimizedAffinity>
-9.1178093

>  <CNNscore>
0.268440992

>  <CNNaffinity>
6.47456884

$$$$

 OpenBabel08282605313D

 33 34  0  0  1  0  0  0  0  0999 V2000
   18.0510   36.7570  124.4990 C   0  0  0  0  0  0  0  0  0  0  0  0
   17.0690   36.7910  123.5720 C   0  0  0  0  0  0  0  0  0  0  0  0
   18.6640   38.0590  124.8550 C   0  0  0  0  0  0  0  0  0  0  0  0
   18.8290   40.4450  124.4710 C   0  0  0  0  0  0  0  0  0  0  0  0
   19.6860   40.5550  125.5720 C   0  0  0  0  0  0  0  0  0  0  0  0
   18.3180   39.2000  124.1170 C   0  0  0  0  0  0  0  0  0  0  0  0
   20.0480   39.4180  126.3000 C   0  0  0  0  0  0  0  0  0  0  0  0
   19.5350   38.1720  125.9450 C   0  0  0  0  0  0  0  0  0  0  0  0
   18.3650   41.5720  123.7300 N   0  0  0  0  0  0  0  0  0  0  0  0
   16.6800   42.9870  123.0400 N   0  0  0  0  0  0  0  0  0  0  0  0
   17.3070   42.3670  124.0750 C   0  0  2  0  0  0  0  0  0  0  0  0
   17.0020   42.5060  125.3790 N   0  0  0  0  0  0  0  0  0  0  0  0
   16.2830   43.6240  125.9370 C   0  0  0  0  0  0  0  0  0  0  0  0
   15.7350   44.5050  126.4490 N   0  0  0  0  0  0  0  0  0  0  0  0
   17.2290   43.0280  122.1880 H   0  0  0  0  0  0  0  0  0  0  0  0
   18.8590   41.7550  122.8590 H   0  0  0  0  0  0  0  0  0  0  0  0
   17.5770   42.0250  126.0570 H   0  0  0  0  0  0  0  0  0  0  0  0
   15.2170   43.2820  122.7950 C   0  0  0  0  0  0  0  0  0  0  0  0
   14.2770   42.3330  123.5390 C   0  0  0  0  0  0  0  0  0  0  0  0
   14.9790   43.0660  121.2810 C   0  0  0  0  0  0  0  0  0  0  0  0
   14.9230   44.7510  123.1130 C   0  0  0  0  0  0  0  0  0  0  0  0
   18.5160   35.4500  125.0580 C   0  0  0  0  0  0  0  0  0  0  0  0
   17.9480   34.8440  126.1880 C   0  0  0  0  0  0  0  0  0  0  0  0
   19.5220   34.7130  124.4220 C   0  0  0  0  0  0  0  0  0  0  0  0
   18.4070   33.6040  126.6350 C   0  0  0  0  0  0  0  0  0  0  0  0
   19.9830   33.5000  124.8200 N   0  0  0  0  0  0  0  0  0  0  0  0
   19.4140   32.9780  125.9240 C   0  0  0  0  0  0  0  0  0  0  0  0
   16.5220   37.9980  122.8390 C   0  0  0  0  0  0  0  0  0  0  0  0
   15.1970   37.7390  122.1010 C   0  0  0  0  0  0  0  0  0  0  0  0
   13.9850   38.4980  122.6540 C   0  0  0  0  0  0  0  0  0  0  0  0
   13.1270   39.0640  121.5130 C   0  0  0  0  0  0  0  0  0  0  0  0
   11.9760   39.4690  121.8520 O   0  0  0  0  0  0  0  0  0  0  0  0
   13.6960   39.0970  120.3810 O   0  0  0  0  0  0  0  0  0  0  0  0
  1  3  1  0  0  0  0
  1 22  1  0  0  0  0
  2  1  2  0  0  0  0
  3  8  1  0  0  0  0
  4  5  2  0  0  0  0
  5  7  1  0  0  0  0
  6  4  1  0  0  0  0
  6  3  2  0  0  0  0
  8  7  2  0  0  0  0
  9 11  1  0  0  0  0
  9  4  1  0  0  0  0
 11 10  1  1  0  0  0
 11 12  1  0  0  0  0
 12 13  1  0  0  0  0
 12 17  1  0  0  0  0
 13 14  3  0  0  0  0
 15 10  1  0  0  0  0
 16  9  1  0  0  0  0
 18 10  1  0  0  0  0
 18 21  1  0  0  0  0
 18 19  1  0  0  0  0
 20 18  1  0  0  0  0
 22 23  1  0  0  0  0
 23 25  2  0  0  0  0
 24 26  1  0  0  0  0
 24 22  2  0  0  0  0
 26 27  2  0  0  0  0
 27 25  1  0  0  0  0
 28  2  1  0  0  0  0
 29 30  1  0  0  0  0
 29 28  1  0  0  0  0
 31 32  1  0  0  0  0
 31 30  1  0  0  0  0
 33 31  2  0  0  0  0
M  END
>  <minimizedAffinity>
-8.76167488

>  <CNNscore>
0.22207205

>  <CNNaffinity>
5.89284468

$$$$

 OpenBabel08282605313D

 33 34  0  0  1  0  0  0  0  0999 V2000
   18.2960   33.6110  126.6200 C   0  0  0  0  0  0  0  0  0  0  0  0
   16.9740   33.8480  126.7630 C   0  0  0  0  0  0  0  0  0  0  0  0
   19.0820   34.6630  125.9340 C   0  0  0  0  0  0  0  0  0  0  0  0
   19.7990   36.9750  125.8250 C   0  0  0  0  0  0  0  0  0  0  0  0
   20.6510   36.6540  124.7630 C   0  0  0  0  0  0  0  0  0  0  0  0
   19.0210   35.9810  126.4100 C   0  0  0  0  0  0  0  0  0  0  0  0
   20.7030   35.3450  124.2720 C   0  0  0  0  0  0  0  0  0  0  0  0
   19.9240   34.3510  124.8600 C   0  0  0  0  0  0  0  0  0  0  0  0
   19.7490   38.2720  126.4170 N   0  0  0  0  0  0  0  0  0  0  0  0
   19.4310   40.5510  126.2750 N   0  0  0  0  0  0  0  0  0  0  0  0
   18.9610   39.3070  125.9950 C   0  0  2  0  0  0  0  0  0  0  0  0
   17.7910   39.0230  125.3910 N   0  0  0  0  0  0  0  0  0  0  0  0
   16.6630   39.9170  125.3300 C   0  0  0  0  0  0  0  0  0  0  0  0
   15.7150   40.5780  125.2690 N   0  0  0  0  0  0  0  0  0  0  0  0
   20.1390   40.5740  127.0000 H   0  0  0  0  0  0  0  0  0  0  0  0
   20.3900   38.4230  127.1930 H   0  0  0  0  0  0  0  0  0  0  0  0
   17.5330   38.0510  125.2830 H   0  0  0  0  0  0  0  0  0  0  0  0
   19.3880   41.8350  125.4750 C   0  0  0  0  0  0  0  0  0  0  0  0
   20.6630   42.6680  125.6030 C   0  0  0  0  0  0  0  0  0  0  0  0
   18.2310   42.6760  126.0670 C   0  0  0  0  0  0  0  0  0  0  0  0
   19.0460   41.5260  124.0140 C   0  0  0  0  0  0  0  0  0  0  0  0
   18.8830   32.3140  127.0770 C   0  0  0  0  0  0  0  0  0  0  0  0
   20.1370   31.8420  126.6630 C   0  0  0  0  0  0  0  0  0  0  0  0
   18.2220   31.5180  128.0210 C   0  0  0  0  0  0  0  0  0  0  0  0
   20.6410   30.6380  127.1580 C   0  0  0  0  0  0  0  0  0  0  0  0
   18.6880   30.3520  128.5340 N   0  0  0  0  0  0  0  0  0  0  0  0
   19.8890   29.9380  128.0830 C   0  0  0  0  0  0  0  0  0  0  0  0
   16.1890   35.0570  126.2950 C   0  0  0  0  0  0  0  0  0  0  0  0
   15.0650   35.4870  127.2540 C   0  0  0  0  0  0  0  0  0  0  0  0
   14.2330   36.6850  126.7840 C   0  0  0  0  0  0  0  0  0  0  0  0
   13.0800   36.2290  125.8780 C   0  0  0  0  0  0  0  0  0  0  0  0
   13.3400   36.2130  124.6380 O   0  0  0  0  0  0  0  0  0  0  0  0
   12.0260   35.8800  126.4880 O   0  0  0  0  0  0  0  0  0  0  0  0
  1  2  2  0  0  0  0
  1 22  1  0  0  0  0
  3  6  1  0  0  0  0
  3  1  1  0  0  0  0
  4  6  2  0  0  0  0
  4  9  1  0  0  0  0
  5  4  1  0  0  0  0
  7  5  2  0  0  0  0
  7  8  1  0  0  0  0
  8  3  2  0  0  0  0
  9 16  1  0  0  0  0
 10 15  1  0  0  0  0
 11 12  1  1  0  0  0
 11 10  1  0  0  0  0
 11  9  1  0  0  0  0
 13 12  1  0  0  0  0
 14 13  3  0  0  0  0
 17 12  1  0  0  0  0
 18 19  1  0  0  0  0
 18 20  1  0  0  0  0
 18 10  1  0  0  0  0
 21 18  1  0  0  0  0
 22 24  1  0  0  0  0
 23 22  2  0  0  0  0
 23 25  1  0  0  0  0
 24 26  2  0  0  0  0
 25 27  2  0  0  0  0
 27 26  1  0  0  0  0
 28  2  1  0  0  0  0
 28 29  1  0  0  0  0
 30 29  1  0  0  0  0
 31 33  1  0  0  0  0
 31 30  1  0  0  0  0
 32 31  2  0  0  0  0
M  END
>  <minimizedAffinity>
-8.24953461

>  <CNNscore>
0.2217132

>  <CNNaffinity>
6.70527124

$$$$

 OpenBabel08282605313D

 33 34  0  0  1  0  0  0  0  0999 V2000
   16.0530   39.1060  124.7300 C   0  0  0  0  0  0  0  0  0  0  0  0
   16.4860   37.9950  125.3630 C   0  0  0  0  0  0  0  0  0  0  0  0
   15.2680   38.8930  123.4910 C   0  0  0  0  0  0  0  0  0  0  0  0
   13.3380   39.4550  122.1390 C   0  0  0  0  0  0  0  0  0  0  0  0
   13.8230   38.6310  121.1170 C   0  0  0  0  0  0  0  0  0  0  0  0
   14.0610   39.5870  123.3200 C   0  0  0  0  0  0  0  0  0  0  0  0
   15.0160   37.9230  121.2890 C   0  0  0  0  0  0  0  0  0  0  0  0
   15.7400   38.0580  122.4720 C   0  0  0  0  0  0  0  0  0  0  0  0
   12.1660   40.2570  122.0010 N   0  0  0  0  0  0  0  0  0  0  0  0
   11.1050   42.3040  121.9790 N   0  0  0  0  0  0  0  0  0  0  0  0
   12.1340   41.5390  121.5260 C   0  0  2  0  0  0  0  0  0  0  0  0
   13.0700   41.9220  120.6370 N   0  0  0  0  0  0  0  0  0  0  0  0
   12.9160   43.0070  119.7020 C   0  0  0  0  0  0  0  0  0  0  0  0
   12.8440   43.8490  118.9110 N   0  0  0  0  0  0  0  0  0  0  0  0
   10.3350   41.7740  122.3710 H   0  0  0  0  0  0  0  0  0  0  0  0
   11.3020   39.8270  122.3250 H   0  0  0  0  0  0  0  0  0  0  0  0
   13.7570   41.2400  120.3450 H   0  0  0  0  0  0  0  0  0  0  0  0
   11.0450   43.7680  122.3570 C   0  0  0  0  0  0  0  0  0  0  0  0
   10.1670   44.0400  123.5780 C   0  0  0  0  0  0  0  0  0  0  0  0
   10.3960   44.4980  121.1560 C   0  0  0  0  0  0  0  0  0  0  0  0
   12.4630   44.3180  122.5320 C   0  0  0  0  0  0  0  0  0  0  0  0
   16.4270   40.4610  125.2420 C   0  0  0  0  0  0  0  0  0  0  0  0
   15.9180   41.6560  124.7160 C   0  0  0  0  0  0  0  0  0  0  0  0
   17.2740   40.6020  126.3470 C   0  0  0  0  0  0  0  0  0  0  0  0
   16.2820   42.8870  125.2660 C   0  0  0  0  0  0  0  0  0  0  0  0
   17.6380   41.7800  126.9170 N   0  0  0  0  0  0  0  0  0  0  0  0
   17.1340   42.8960  126.3550 C   0  0  0  0  0  0  0  0  0  0  0  0
   16.2790   36.5510  124.9560 C   0  0  0  0  0  0  0  0  0  0  0  0
   15.2430   35.7980  125.8100 C   0  0  0  0  0  0  0  0  0  0  0  0
   13.9460   36.5670  126.0870 C   0  0  0  0  0  0  0  0  0  0  0  0
   13.5920   36.5220  127.5800 C   0  0  0  0  0  0  0  0  0  0  0  0
   12.6470   37.2860  127.9360 O   0  0  0  0  0  0  0  0  0  0  0  0
   14.2600   35.6890  128.2630 O   0  0  0  0  0  0  0  0  0  0  0  0
  1 22  1  0  0  0  0
  1  2  2  0  0  0  0
  3  1  1  0  0  0  0
  4  6  2  0  0  0  0
  5  7  2  0  0  0  0
  5  4  1  0  0  0  0
  6  3  1  0  0  0  0
  7  8  1  0  0  0  0
  8  3  2  0  0  0  0
  9  4  1  0  0  0  0
  9 16  1  0  0  0  0
 10 18  1  0  0  0  0
 10 15  1  0  0  0  0
 11 12  1  6  0  0  0
 11 10  1  0  0  0  0
 11  9  1  0  0  0  0
 13 12  1  0  0  0  0
 14 13  3  0  0  0  0
 17 12  1  0  0  0  0
 18 21  1  0  0  0  0
 18 19  1  0  0  0  0
 20 18  1  0  0  0  0
 22 24  1  0  0  0  0
 23 22  2  0  0  0  0
 23 25  1  0  0  0  0
 24 26  2  0  0  0  0
 25 27  2  0  0  0  0
 27 26  1  0  0  0  0
 28  2  1  0  0  0  0
 28 29  1  0  0  0  0
 29 30  1  0  0  0  0
 30 31  1  0  0  0  0
 31 32  2  0  0  0  0
 31 33  1  0  0  0  0
M  END
>  <minimizedAffinity>
-7.9692502

>  <CNNscore>
0.213482827

>  <CNNaffinity>
5.81288958

$$$$
