HRNDBVFQBKUZAV-UHFFFAOYSA-N
     RDKit          3D

 32 34  0  0  0  0  0  0  0  0999 V2000
   39.1960  -39.4150  105.2740 C   0  0  0  0  0  0  0  0  0  0  0  0
   40.6320  -39.5090  104.9010 C   0  0  0  0  0  0  0  0  0  0  0  0
   40.9570  -40.0360  103.6600 N   0  0  0  0  0  0  0  0  0  0  0  0
   42.2630  -40.0370  103.4710 C   0  0  0  0  0  0  0  0  0  0  0  0
   42.9120  -40.5330  102.2370 C   0  0  0  0  0  0  0  0  0  0  0  0
   43.5880  -41.7610  102.1520 C   0  0  0  0  0  0  0  0  0  0  0  0
   44.1810  -42.1780  100.9540 C   0  0  0  0  0  0  0  0  0  0  0  0
   44.1230  -41.3770   99.8060 C   0  0  0  0  0  0  0  0  0  0  0  0
   44.7440  -41.8390   98.5110 C   0  0  0  0  0  0  0  0  0  0  0  0
   45.3900  -40.8450   97.8400 F   0  0  0  0  0  0  0  0  0  0  0  0
   43.8220  -42.3410   97.6440 F   0  0  0  0  0  0  0  0  0  0  0  0
   45.6680  -42.8260   98.6870 F   0  0  0  0  0  0  0  0  0  0  0  0
   43.4410  -40.1550   99.8770 C   0  0  0  0  0  0  0  0  0  0  0  0
   42.8480  -39.7420  101.0760 C   0  0  0  0  0  0  0  0  0  0  0  0
   43.1640  -39.3950  104.7910 S   0  0  0  0  0  0  0  0  0  0  0  0
   41.7160  -39.1090  105.6630 C   0  0  0  0  0  0  0  0  0  0  0  0
   41.7510  -38.5220  107.0380 C   0  0  0  0  0  0  0  0  0  0  0  0
   41.7050  -39.5800  108.0430 N   0  0  0  0  0  0  0  0  0  0  0  0
   42.2110  -39.1070  109.3290 C   0  0  0  0  0  0  0  0  0  0  0  0
   43.7080  -38.9130  109.2760 C   0  0  0  0  0  0  0  0  0  0  0  0
   44.2690  -37.6540  109.5390 C   0  0  0  0  0  0  0  0  0  0  0  0
   45.6520  -37.4620  109.4850 C   0  0  0  0  0  0  0  0  0  0  0  0
   46.4860  -38.5330  109.1780 C   0  0  0  0  0  0  0  0  0  0  0  0
   47.8410  -38.4000  109.0820 O   0  0  0  0  0  0  0  0  0  0  0  0
   48.3630  -38.0420  107.7870 C   0  0  0  0  0  0  0  0  0  0  0  0
   47.3620  -37.2400  106.9330 C   0  0  0  0  0  0  0  0  0  0  0  0
   49.5600  -37.1270  108.1050 C   0  0  0  0  0  0  0  0  0  0  0  0
   48.9460  -39.2380  107.0120 C   0  0  0  0  0  0  0  0  0  0  0  0
   49.1830  -39.3030  105.8160 O   0  0  0  0  0  0  0  0  0  0  0  0
   49.1510  -40.3340  107.7770 O   0  0  0  0  0  0  0  0  0  0  0  0
   45.9380  -39.7780  108.8660 C   0  0  0  0  0  0  0  0  0  0  0  0
   44.5560  -39.9700  108.9230 C   0  0  0  0  0  0  0  0  0  0  0  0
  1  2  1  0
  2  3  1  0
  3  4  2  0
  4  5  1  0
  5  6  2  0
  6  7  1  0
  7  8  2  0
  8  9  1  0
  9 10  1  0
  9 11  1  0
  9 12  1  0
  8 13  1  0
 13 14  2  0
  4 15  1  0
 15 16  1  0
 16 17  1  0
 17 18  1  0
 18 19  1  0
 19 20  1  0
 20 21  2  0
 21 22  1  0
 22 23  2  0
 23 24  1  0
 24 25  1  0
 25 26  1  0
 25 27  1  0
 25 28  1  0
 28 29  2  0
 28 30  1  0
 23 31  1  0
 31 32  2  0
 16  2  2  0
 32 20  1  0
 14  5  1  0
M  END
$$$$
