PPSVTOJQRIASNE-UHFFFAOYSA-N
     RDKit          3D

 34 36  0  0  0  0  0  0  0  0999 V2000
  -19.8370  -41.2350   24.2550 C   0  0  0  0  0  0  0  0  0  0  0  0
  -19.7370  -42.1050   25.5290 C   0  0  0  0  0  0  0  0  0  0  0  0
  -20.4840  -41.3550   26.6530 C   0  0  0  0  0  0  0  0  0  0  0  0
  -20.4640  -43.4330   25.2330 C   0  0  0  0  0  0  0  0  0  0  0  0
  -18.2920  -42.3930   25.9710 C   0  0  0  0  0  0  0  0  0  0  0  0
  -17.2600  -42.6710   25.0660 C   0  0  0  0  0  0  0  0  0  0  0  0
  -15.9500  -42.9290   25.5050 C   0  0  0  0  0  0  0  0  0  0  0  0
  -15.6170  -42.9200   26.8600 C   0  0  0  0  0  0  0  0  0  0  0  0
  -14.3470  -43.1730   27.3390 N   0  0  0  0  0  0  0  0  0  0  0  0
  -13.3410  -43.9220   26.6110 C   0  0  0  0  0  0  0  0  0  0  0  0
  -13.8140  -45.3550   26.3470 C   0  0  0  0  0  0  0  0  0  0  0  0
  -12.8800  -46.4050   26.9590 C   0  0  0  0  0  0  0  0  0  0  0  0
  -11.7050  -45.7930   27.7300 C   0  0  0  0  0  0  0  0  0  0  0  0
  -11.6170  -46.2720   29.1820 C   0  0  0  0  0  0  0  0  0  0  0  0
  -12.9150  -46.0570   29.9680 C   0  0  0  0  0  0  0  0  0  0  0  0
  -12.6780  -45.6790   31.4350 C   0  0  0  0  0  0  0  0  0  0  0  0
  -13.3080  -44.3330   31.8040 C   0  0  0  0  0  0  0  0  0  0  0  0
  -12.3550  -43.2430   31.6930 N   0  0  0  0  0  0  0  0  0  0  0  0
  -10.9820  -43.3670   31.5130 C   0  0  0  0  0  0  0  0  0  0  0  0
  -10.1570  -43.8390   32.5360 C   0  0  0  0  0  0  0  0  0  0  0  0
   -8.7960  -43.9460   32.3220 C   0  0  0  0  0  0  0  0  0  0  0  0
   -8.1910  -43.6180   31.1680 N   0  0  0  0  0  0  0  0  0  0  0  0
   -8.9570  -43.1570   30.1740 C   0  0  0  0  0  0  0  0  0  0  0  0
   -8.3160  -42.8160   28.9900 C   0  0  0  0  0  0  0  0  0  0  0  0
   -9.0060  -42.3150   27.8770 C   0  0  0  0  0  0  0  0  0  0  0  0
   -8.2620  -41.9820   26.6090 C   0  0  0  0  0  0  0  0  0  0  0  0
   -7.7620  -40.7150   26.6000 F   0  0  0  0  0  0  0  0  0  0  0  0
   -9.0520  -42.0780   25.5060 F   0  0  0  0  0  0  0  0  0  0  0  0
   -7.1980  -42.8010   26.3830 F   0  0  0  0  0  0  0  0  0  0  0  0
  -10.3890  -42.1680   27.9650 C   0  0  0  0  0  0  0  0  0  0  0  0
  -11.0550  -42.5050   29.1470 C   0  0  0  0  0  0  0  0  0  0  0  0
  -10.3620  -43.0050   30.2780 C   0  0  0  0  0  0  0  0  0  0  0  0
  -16.6460  -42.6480   27.7650 C   0  0  0  0  0  0  0  0  0  0  0  0
  -17.9530  -42.3890   27.3340 C   0  0  0  0  0  0  0  0  0  0  0  0
  1  2  1  0
  2  3  1  0
  2  4  1  0
  2  5  1  0
  5  6  2  0
  6  7  1  0
  7  8  2  0
  8  9  1  0
  9 10  1  0
 10 11  1  0
 11 12  1  0
 12 13  1  0
 13 14  1  0
 14 15  1  0
 15 16  1  0
 16 17  1  0
 17 18  1  0
 18 19  1  0
 19 20  2  0
 20 21  1  0
 21 22  2  0
 22 23  1  0
 23 24  2  0
 24 25  1  0
 25 26  1  0
 26 27  1  0
 26 28  1  0
 26 29  1  0
 25 30  2  0
 30 31  1  0
 31 32  2  0
  8 33  1  0
 33 34  2  0
 34  5  1  0
 32 19  1  0
 32 23  1  0
M  END
$$$$
