AINQVQKSQFDZMT-HMMYKYKNSA-N
     RDKit          3D

 41 44  0  0  0  0  0  0  0  0999 V2000
  126.2660  -20.4580  163.8740 C   0  0  0  0  0  0  0  0  0  0  0  0
  126.2200  -19.0830  164.2570 O   0  0  0  0  0  0  0  0  0  0  0  0
  125.5970  -18.2760  163.3520 C   0  0  0  0  0  0  0  0  0  0  0  0
  124.6430  -18.6080  162.6590 O   0  0  0  0  0  0  0  0  0  0  0  0
  126.2550  -16.9080  163.3310 C   0  0  2  0  0  0  0  0  0  0  0  0
  125.2540  -15.8800  162.7730 C   0  0  0  0  0  0  0  0  0  0  0  0
  125.5290  -14.4720  163.2560 C   0  0  0  0  0  0  0  0  0  0  0  0
  126.3560  -13.6130  162.5200 C   0  0  0  0  0  0  0  0  0  0  0  0
  126.6330  -12.3260  162.9870 C   0  0  0  0  0  0  0  0  0  0  0  0
  126.0910  -11.8880  164.1960 C   0  0  0  0  0  0  0  0  0  0  0  0
  125.2610  -12.7340  164.9350 C   0  0  0  0  0  0  0  0  0  0  0  0
  124.6960  -12.2820  166.2360 C   0  0  0  0  0  0  0  0  0  0  0  0
  123.8880  -13.0170  166.9330 N   0  0  0  0  0  0  0  0  0  0  0  0
  125.0140  -11.0640  166.7370 N   0  0  0  0  0  0  0  0  0  0  0  0
  124.9800  -14.0210  164.4650 C   0  0  0  0  0  0  0  0  0  0  0  0
  127.5430  -17.0130  162.4890 C   0  0  2  0  0  0  0  0  0  0  0  0
  127.4110  -18.0420  161.3880 C   0  0  0  0  0  0  0  0  0  0  0  0
  128.3590  -18.9520  161.1090 C   0  0  0  0  0  0  0  0  0  0  0  0
  128.2570  -19.9390  160.0270 C   0  0  0  0  0  0  0  0  0  0  0  0
  128.7140  -19.5930  158.7490 C   0  0  0  0  0  0  0  0  0  0  0  0
  128.6040  -20.4930  157.6870 C   0  0  0  0  0  0  0  0  0  0  0  0
  128.0250  -21.7440  157.8890 C   0  0  0  0  0  0  0  0  0  0  0  0
  127.5520  -22.0940  159.1530 C   0  0  0  0  0  0  0  0  0  0  0  0
  127.6620  -21.1940  160.2160 C   0  0  0  0  0  0  0  0  0  0  0  0
  128.6860  -17.4530  163.2790 N   0  0  0  0  0  0  0  0  0  0  0  0
  129.4620  -16.5670  163.9960 C   0  0  0  0  0  0  0  0  0  0  0  0
  129.2610  -15.3590  164.0180 O   0  0  0  0  0  0  0  0  0  0  0  0
  130.5970  -17.1500  164.7600 C   0  0  0  0  0  0  0  0  0  0  0  0
  130.8610  -16.6570  166.0420 C   0  0  0  0  0  0  0  0  0  0  0  0
  131.9130  -17.1840  166.7930 C   0  0  0  0  0  0  0  0  0  0  0  0
  132.7120  -18.2210  166.2860 C   0  0  0  0  0  0  0  0  0  0  0  0
  133.8080  -18.7860  167.0880 C   0  0  0  0  0  0  0  0  0  0  0  0
  133.5150  -19.7810  168.0410 C   0  0  0  0  0  0  0  0  0  0  0  0
  134.5210  -20.3380  168.8290 C   0  0  0  0  0  0  0  0  0  0  0  0
  135.8350  -19.9120  168.6760 C   0  0  0  0  0  0  0  0  0  0  0  0
  136.1480  -18.9280  167.7350 C   0  0  0  0  0  0  0  0  0  0  0  0
  135.1470  -18.3600  166.9370 C   0  0  0  0  0  0  0  0  0  0  0  0
  135.3700  -17.3960  165.9840 O   0  0  0  0  0  0  0  0  0  0  0  0
  135.5580  -16.0600  166.4300 C   0  0  0  0  0  0  0  0  0  0  0  0
  132.4260  -18.7210  165.0060 C   0  0  0  0  0  0  0  0  0  0  0  0
  131.3760  -18.1940  164.2460 C   0  0  0  0  0  0  0  0  0  0  0  0
  1  2  1  0
  2  3  1  0
  3  4  2  0
  3  5  1  0
  5  6  1  6
  6  7  1  0
  7  8  2  0
  8  9  1  0
  9 10  2  0
 10 11  1  0
 11 12  1  0
 12 13  2  0
 12 14  1  0
 11 15  2  0
  5 16  1  0
 16 17  1  0
 17 18  2  0
 18 19  1  0
 19 20  2  0
 20 21  1  0
 21 22  2  0
 22 23  1  0
 23 24  2  0
 16 25  1  1
 25 26  1  0
 26 27  2  0
 26 28  1  0
 28 29  2  0
 29 30  1  0
 30 31  2  0
 31 32  1  0
 32 33  2  0
 33 34  1  0
 34 35  2  0
 35 36  1  0
 36 37  2  0
 37 38  1  0
 38 39  1  0
 31 40  1  0
 40 41  2  0
 15  7  1  0
 24 19  1  0
 41 28  1  0
 37 32  1  0
M  END
$$$$
