AINQVQKSQFDZMT-HMMYKYKNSA-N
     RDKit          3D

 41 44  0  0  0  0  0  0  0  0999 V2000
  131.7910  -14.0510  162.8300 C   0  0  0  0  0  0  0  0  0  0  0  0
  131.0110  -14.9270  162.0150 O   0  0  0  0  0  0  0  0  0  0  0  0
  129.7780  -14.4380  161.6980 C   0  0  0  0  0  0  0  0  0  0  0  0
  129.4850  -13.2490  161.6630 O   0  0  0  0  0  0  0  0  0  0  0  0
  128.8260  -15.5790  161.3920 C   0  0  2  0  0  0  0  0  0  0  0  0
  127.7180  -15.0670  160.4530 C   0  0  0  0  0  0  0  0  0  0  0  0
  128.0350  -15.3030  158.9920 C   0  0  0  0  0  0  0  0  0  0  0  0
  128.1690  -16.6040  158.4890 C   0  0  0  0  0  0  0  0  0  0  0  0
  128.4930  -16.8150  157.1480 C   0  0  0  0  0  0  0  0  0  0  0  0
  128.6920  -15.7270  156.2950 C   0  0  0  0  0  0  0  0  0  0  0  0
  128.5560  -14.4260  156.7840 C   0  0  0  0  0  0  0  0  0  0  0  0
  128.7880  -13.2600  155.8880 C   0  0  0  0  0  0  0  0  0  0  0  0
  129.9250  -12.6420  155.8350 N   0  0  0  0  0  0  0  0  0  0  0  0
  127.7950  -12.8010  155.0880 N   0  0  0  0  0  0  0  0  0  0  0  0
  128.2270  -14.2150  158.1280 C   0  0  0  0  0  0  0  0  0  0  0  0
  128.2800  -16.1150  162.7320 C   0  0  2  0  0  0  0  0  0  0  0  0
  127.6320  -15.0210  163.5510 C   0  0  0  0  0  0  0  0  0  0  0  0
  126.3100  -14.9560  163.7810 C   0  0  0  0  0  0  0  0  0  0  0  0
  125.6630  -13.8860  164.5510 C   0  0  0  0  0  0  0  0  0  0  0  0
  126.1820  -12.5870  164.4750 C   0  0  0  0  0  0  0  0  0  0  0  0
  125.6140  -11.5500  165.2180 C   0  0  0  0  0  0  0  0  0  0  0  0
  124.5290  -11.8020  166.0540 C   0  0  0  0  0  0  0  0  0  0  0  0
  124.0140  -13.0940  166.1500 C   0  0  0  0  0  0  0  0  0  0  0  0
  124.5810  -14.1320  165.4070 C   0  0  0  0  0  0  0  0  0  0  0  0
  129.3350  -16.6490  163.5850 N   0  0  0  0  0  0  0  0  0  0  0  0
  129.2750  -17.9230  164.1070 C   0  0  0  0  0  0  0  0  0  0  0  0
  128.3430  -18.6920  163.9070 O   0  0  0  0  0  0  0  0  0  0  0  0
  130.4190  -18.3420  164.9610 C   0  0  0  0  0  0  0  0  0  0  0  0
  130.5850  -17.7210  166.2030 C   0  0  0  0  0  0  0  0  0  0  0  0
  131.6430  -18.0910  167.0370 C   0  0  0  0  0  0  0  0  0  0  0  0
  132.5450  -19.0950  166.6530 C   0  0  0  0  0  0  0  0  0  0  0  0
  133.6470  -19.4950  167.5410 C   0  0  0  0  0  0  0  0  0  0  0  0
  133.3920  -20.4190  168.5730 C   0  0  0  0  0  0  0  0  0  0  0  0
  134.4040  -20.8200  169.4440 C   0  0  0  0  0  0  0  0  0  0  0  0
  135.6860  -20.3050  169.2970 C   0  0  0  0  0  0  0  0  0  0  0  0
  135.9620  -19.3880  168.2790 C   0  0  0  0  0  0  0  0  0  0  0  0
  134.9540  -18.9770  167.3970 C   0  0  0  0  0  0  0  0  0  0  0  0
  135.1410  -18.0900  166.3670 O   0  0  0  0  0  0  0  0  0  0  0  0
  135.1710  -16.7050  166.6870 C   0  0  0  0  0  0  0  0  0  0  0  0
  132.3570  -19.7250  165.4120 C   0  0  0  0  0  0  0  0  0  0  0  0
  131.3030  -19.3550  164.5700 C   0  0  0  0  0  0  0  0  0  0  0  0
  1  2  1  0
  2  3  1  0
  3  4  2  0
  3  5  1  0
  5  6  1  6
  6  7  1  0
  7  8  2  0
  8  9  1  0
  9 10  2  0
 10 11  1  0
 11 12  1  0
 12 13  2  0
 12 14  1  0
 11 15  2  0
  5 16  1  0
 16 17  1  0
 17 18  2  0
 18 19  1  0
 19 20  2  0
 20 21  1  0
 21 22  2  0
 22 23  1  0
 23 24  2  0
 16 25  1  1
 25 26  1  0
 26 27  2  0
 26 28  1  0
 28 29  2  0
 29 30  1  0
 30 31  2  0
 31 32  1  0
 32 33  2  0
 33 34  1  0
 34 35  2  0
 35 36  1  0
 36 37  2  0
 37 38  1  0
 38 39  1  0
 31 40  1  0
 40 41  2  0
 15  7  1  0
 24 19  1  0
 41 28  1  0
 37 32  1  0
M  END
$$$$
