IBVURLSKTNUMDI-UHFFFAOYSA-N
     RDKit          3D

 25 28  0  0  0  0  0  0  0  0999 V2000
   13.2470    4.3730   26.7840 N   0  0  0  0  0  0  0  0  0  0  0  0
   13.6830    3.3660   27.1660 C   0  0  0  0  0  0  0  0  0  0  0  0
   14.3070    2.1150   27.4940 C   0  0  0  0  0  0  0  0  0  0  0  0
   13.8380    1.1660   28.3810 C   0  0  0  0  0  0  0  0  0  0  0  0
   12.7910    1.0500   29.2640 N   0  0  0  0  0  0  0  0  0  0  0  0
   12.7460    1.5590   30.5420 C   0  0  0  0  0  0  0  0  0  0  0  0
   13.6670    2.1190   31.1290 O   0  0  0  0  0  0  0  0  0  0  0  0
   11.3880    1.3410   31.2200 C   0  0  0  0  0  0  0  0  0  0  0  0
   10.5230    0.4710   30.4320 N   0  0  0  0  0  0  0  0  0  0  0  0
   10.1530   -0.7560   30.8500 C   0  0  0  0  0  0  0  0  0  0  0  0
   10.8920   -1.8640   30.7030 N   0  0  0  0  0  0  0  0  0  0  0  0
   10.1290   -2.8290   31.2620 N   0  0  0  0  0  0  0  0  0  0  0  0
    8.9540   -2.3750   31.7820 C   0  0  0  0  0  0  0  0  0  0  0  0
    8.0190   -3.1170   32.4050 N   0  0  0  0  0  0  0  0  0  0  0  0
    6.9600   -2.3800   32.8120 C   0  0  0  0  0  0  0  0  0  0  0  0
    6.8060   -1.0090   32.6290 C   0  0  0  0  0  0  0  0  0  0  0  0
    7.8100   -0.2920   31.9750 C   0  0  0  0  0  0  0  0  0  0  0  0
    8.9320   -1.0130   31.5330 C   0  0  0  0  0  0  0  0  0  0  0  0
   14.7900   -0.2560   28.3740 S   0  0  0  0  0  0  0  0  0  0  0  0
   15.8770    0.3990   27.2490 C   0  0  0  0  0  0  0  0  0  0  0  0
   15.5210    1.6730   26.8500 C   0  0  0  0  0  0  0  0  0  0  0  0
   16.3210    2.4280   25.8240 C   0  0  0  0  0  0  0  0  0  0  0  0
   17.7170    1.8200   25.6230 C   0  0  0  0  0  0  0  0  0  0  0  0
   17.6580    0.2900   25.5090 C   0  0  0  0  0  0  0  0  0  0  0  0
   17.0860   -0.3510   26.7820 C   0  0  0  0  0  0  0  0  0  0  0  0
  1  2  3  0
  2  3  1  0
  3  4  2  0
  4  5  1  0
  5  6  1  0
  6  7  2  0
  6  8  1  0
  8  9  1  0
  9 10  1  0
 10 11  2  0
 11 12  1  0
 12 13  1  0
 13 14  2  0
 14 15  1  0
 15 16  2  0
 16 17  1  0
 17 18  2  0
  4 19  1  0
 19 20  1  0
 20 21  2  0
 21 22  1  0
 22 23  1  0
 23 24  1  0
 24 25  1  0
 21  3  1  0
 18 10  1  0
 25 20  1  0
 18 13  1  0
M  END
$$$$
