QCICTFWGEABKRH-UHFFFAOYSA-N
     RDKit          3D

 46 50  0  0  0  0  0  0  0  0999 V2000
    9.7070  -16.0710   20.6010 C   0  0  0  0  0  0  0  0  0  0  0  0
    9.7270  -17.5050   20.5760 N   0  0  0  0  0  0  0  0  0  0  0  0
    9.6750  -18.2700   21.7210 C   0  0  0  0  0  0  0  0  0  0  0  0
    9.5830  -17.7840   22.8460 O   0  0  0  0  0  0  0  0  0  0  0  0
    9.7290  -19.7180   21.4530 C   0  0  0  0  0  0  0  0  0  0  0  0
   10.8210  -20.2700   20.8740 N   0  0  0  0  0  0  0  0  0  0  0  0
   10.5010  -21.5680   20.7610 N   0  0  0  0  0  0  0  0  0  0  0  0
    9.2690  -21.8910   21.2510 C   0  0  0  0  0  0  0  0  0  0  0  0
    8.5890  -23.1050   21.3040 C   0  0  0  0  0  0  0  0  0  0  0  0
    7.3200  -23.0420   21.8640 C   0  0  0  0  0  0  0  0  0  0  0  0
    6.4610  -24.2300   21.9840 C   0  0  0  0  0  0  0  0  0  0  0  0
    6.7350  -25.1610   23.0060 C   0  0  0  0  0  0  0  0  0  0  0  0
    5.9300  -26.2800   23.1770 C   0  0  0  0  0  0  0  0  0  0  0  0
    6.2050  -27.1570   24.1550 F   0  0  0  0  0  0  0  0  0  0  0  0
    4.8410  -26.5020   22.3450 C   0  0  0  0  0  0  0  0  0  0  0  0
    4.0450  -27.5990   22.5050 O   0  0  0  0  0  0  0  0  0  0  0  0
    4.5460  -25.6060   21.3280 C   0  0  0  0  0  0  0  0  0  0  0  0
    5.3430  -24.4590   21.1340 C   0  0  0  0  0  0  0  0  0  0  0  0
    4.9860  -23.5380   19.9770 C   0  0  0  0  0  0  0  0  0  0  0  0
    3.9510  -22.4880   20.3440 C   0  0  0  0  0  0  0  0  0  0  0  0
    4.0900  -22.1010   21.6320 F   0  0  0  0  0  0  0  0  0  0  0  0
    4.0450  -21.3780   19.5750 F   0  0  0  0  0  0  0  0  0  0  0  0
    2.6910  -22.9670   20.2130 F   0  0  0  0  0  0  0  0  0  0  0  0
    6.7770  -21.9030   22.3490 N   0  0  0  0  0  0  0  0  0  0  0  0
    7.4330  -20.7130   22.2890 C   0  0  0  0  0  0  0  0  0  0  0  0
    6.8010  -19.5850   22.7530 N   0  0  0  0  0  0  0  0  0  0  0  0
    6.4790  -18.5150   21.8360 C   0  0  0  0  0  0  0  0  0  0  0  0
    5.0170  -18.5640   21.4560 C   0  0  0  0  0  0  0  0  0  0  0  0
    4.0890  -19.0700   22.3820 C   0  0  0  0  0  0  0  0  0  0  0  0
    2.7340  -19.1170   22.0730 C   0  0  0  0  0  0  0  0  0  0  0  0
    1.8880  -19.6230   23.0120 O   0  0  0  0  0  0  0  0  0  0  0  0
    2.2680  -18.6600   20.8470 C   0  0  0  0  0  0  0  0  0  0  0  0
    3.1750  -18.1480   19.9190 C   0  0  0  0  0  0  0  0  0  0  0  0
    4.5460  -18.1010   20.2120 C   0  0  0  0  0  0  0  0  0  0  0  0
    5.4660  -17.5700   19.2430 N   0  0  0  0  0  0  0  0  0  0  0  0
    6.6000  -18.4320   18.8650 C   0  0  0  0  0  0  0  0  0  0  0  0
    5.7330  -15.8880   19.2250 S   0  0  0  0  0  0  0  0  0  0  0  0
    5.5990  -15.3980   20.5830 O   0  0  0  0  0  0  0  0  0  0  0  0
    6.9250  -15.5900   18.4580 O   0  0  0  0  0  0  0  0  0  0  0  0
    4.3470  -15.2450   18.3070 C   0  0  0  0  0  0  0  0  0  0  0  0
    3.2400  -14.7310   18.9910 C   0  0  0  0  0  0  0  0  0  0  0  0
    2.1670  -14.2090   18.2690 C   0  0  0  0  0  0  0  0  0  0  0  0
    2.2100  -14.1880   16.8720 C   0  0  0  0  0  0  0  0  0  0  0  0
    3.3280  -14.6750   16.1960 C   0  0  0  0  0  0  0  0  0  0  0  0
    4.4060  -15.1950   16.9110 C   0  0  0  0  0  0  0  0  0  0  0  0
    8.7270  -20.6990   21.7250 C   0  0  0  0  0  0  0  0  0  0  0  0
  1  2  1  0
  2  3  1  0
  3  4  2  0
  3  5  1  0
  5  6  2  0
  6  7  1  0
  7  8  1  0
  8  9  2  0
  9 10  1  0
 10 11  1  0
 11 12  2  0
 12 13  1  0
 13 14  1  0
 13 15  2  0
 15 16  1  0
 15 17  1  0
 17 18  2  0
 18 19  1  0
 19 20  1  0
 20 21  1  0
 20 22  1  0
 20 23  1  0
 10 24  2  0
 24 25  1  0
 25 26  1  0
 26 27  1  0
 27 28  1  0
 28 29  2  0
 29 30  1  0
 30 31  1  0
 30 32  2  0
 32 33  1  0
 33 34  2  0
 34 35  1  0
 35 36  1  0
 35 37  1  0
 37 38  2  0
 37 39  2  0
 37 40  1  0
 40 41  2  0
 41 42  1  0
 42 43  2  0
 43 44  1  0
 44 45  2  0
 25 46  2  0
 46  5  1  0
 46  8  1  0
 18 11  1  0
 34 28  1  0
 45 40  1  0
M  END
$$$$
