IRTDIKMSKMREGO-OAHLLOKOSA-N
     RDKit          3D

 30 33  0  0  0  0  0  0  0  0999 V2000
   51.9930   -0.6200  -41.4810 C   0  0  0  0  0  0  0  0  0  0  0  0
   51.8700   -0.5330  -42.9720 C   0  0  0  0  0  0  0  0  0  0  0  0
   50.6870   -1.0880  -43.5820 C   0  0  0  0  0  0  0  0  0  0  0  0
   50.4880   -1.0610  -44.9130 C   0  0  0  0  0  0  0  0  0  0  0  0
   49.2710   -1.6050  -45.6310 C   0  0  1  0  0  0  0  0  0  0  0  0
   49.4550   -3.0960  -45.9370 C   0  0  0  0  0  0  0  0  0  0  0  0
   48.0650   -1.4490  -44.8200 N   0  0  0  0  0  0  0  0  0  0  0  0
   47.0540   -2.3830  -44.6410 C   0  0  0  0  0  0  0  0  0  0  0  0
   46.2220   -2.7810  -45.7010 C   0  0  0  0  0  0  0  0  0  0  0  0
   45.2080   -3.7290  -45.5290 C   0  0  0  0  0  0  0  0  0  0  0  0
   44.9990   -4.3100  -44.2850 C   0  0  0  0  0  0  0  0  0  0  0  0
   45.8040   -3.9390  -43.2120 C   0  0  0  0  0  0  0  0  0  0  0  0
   46.8260   -2.9850  -43.3770 C   0  0  0  0  0  0  0  0  0  0  0  0
   47.6630   -2.6010  -42.2020 C   0  0  0  0  0  0  0  0  0  0  0  0
   47.7800   -1.4830  -41.7280 O   0  0  0  0  0  0  0  0  0  0  0  0
   48.3280   -3.6400  -41.6620 O   0  0  0  0  0  0  0  0  0  0  0  0
   51.5430   -0.4170  -45.7750 C   0  0  0  0  0  0  0  0  0  0  0  0
   51.3730   -0.3730  -47.0610 N   0  0  0  0  0  0  0  0  0  0  0  0
   52.3190    0.2020  -47.8700 C   0  0  0  0  0  0  0  0  0  0  0  0
   52.0980    0.2270  -49.2520 N   0  0  0  0  0  0  0  0  0  0  0  0
   53.0380    0.7680  -50.2530 C   0  0  0  0  0  0  0  0  0  0  0  0
   52.8240    0.1050  -51.6220 C   0  0  0  0  0  0  0  0  0  0  0  0
   51.5070    0.2900  -52.1540 O   0  0  0  0  0  0  0  0  0  0  0  0
   50.4980    0.3750  -51.1380 C   0  0  0  0  0  0  0  0  0  0  0  0
   50.8630   -0.3460  -49.8320 C   0  0  0  0  0  0  0  0  0  0  0  0
   53.4270    0.7350  -47.3330 C   0  0  0  0  0  0  0  0  0  0  0  0
   53.6500    0.7010  -45.8830 C   0  0  0  0  0  0  0  0  0  0  0  0
   54.6830    1.1990  -45.4350 O   0  0  0  0  0  0  0  0  0  0  0  0
   52.6570    0.1000  -45.1330 N   0  0  0  0  0  0  0  0  0  0  0  0
   52.7990    0.0320  -43.7550 C   0  0  0  0  0  0  0  0  0  0  0  0
  1  2  1  0
  2  3  1  0
  3  4  2  0
  4  5  1  0
  5  6  1  1
  5  7  1  0
  7  8  1  0
  8  9  2  0
  9 10  1  0
 10 11  2  0
 11 12  1  0
 12 13  2  0
 13 14  1  0
 14 15  2  0
 14 16  1  0
  4 17  1  0
 17 18  2  0
 18 19  1  0
 19 20  1  0
 20 21  1  0
 21 22  1  0
 22 23  1  0
 23 24  1  0
 24 25  1  0
 19 26  2  0
 26 27  1  0
 27 28  2  0
 27 29  1  0
 29 30  1  0
 30  2  2  0
 13  8  1  0
 29 17  1  0
 25 20  1  0
M  END
$$$$
