UNRMWZNDXAAOPZ-UHFFFAOYSA-N
     RDKit          3D

 38 43  0  0  0  0  0  0  0  0999 V2000
    2.8750  -19.4440   22.2660 N   0  0  0  0  0  0  0  0  0  0  0  0
    3.2390  -20.1510   21.4220 C   0  0  0  0  0  0  0  0  0  0  0  0
    3.7350  -21.0580   20.3790 C   0  0  0  0  0  0  0  0  0  0  0  0
    4.8100  -21.9950   20.9200 C   0  0  0  0  0  0  0  0  0  0  0  0
    4.3240  -23.3900   21.0210 N   0  0  0  0  0  0  0  0  0  0  0  0
    4.9700  -24.4040   21.6740 C   0  0  0  0  0  0  0  0  0  0  0  0
    4.1540  -25.5120   21.5720 C   0  0  0  0  0  0  0  0  0  0  0  0
    4.4620  -26.8140   22.1180 C   0  0  0  0  0  0  0  0  0  0  0  0
    3.6500  -27.9290   21.8770 C   0  0  0  0  0  0  0  0  0  0  0  0
    3.9890  -29.1470   22.4490 C   0  0  0  0  0  0  0  0  0  0  0  0
    5.0590  -29.3730   23.2440 N   0  0  0  0  0  0  0  0  0  0  0  0
    5.8150  -28.2770   23.4350 C   0  0  0  0  0  0  0  0  0  0  0  0
    6.9560  -28.2590   24.1890 N   0  0  0  0  0  0  0  0  0  0  0  0
    7.5040  -27.0020   24.1740 C   0  0  0  0  0  0  0  0  0  0  0  0
    6.6930  -26.2010   23.3970 C   0  0  0  0  0  0  0  0  0  0  0  0
    5.6040  -26.9960   22.9280 C   0  0  0  0  0  0  0  0  0  0  0  0
    3.0340  -25.0480   20.8450 C   0  0  0  0  0  0  0  0  0  0  0  0
    3.1280  -23.7540   20.5240 N   0  0  0  0  0  0  0  0  0  0  0  0
    6.1710  -21.9240   20.1700 C   0  0  0  0  0  0  0  0  0  0  0  0
    6.5940  -20.9030   21.1730 N   0  0  0  0  0  0  0  0  0  0  0  0
    8.0040  -21.0880   21.5700 C   0  0  0  0  0  0  0  0  0  0  0  0
    8.9250  -20.3400   20.5850 C   0  0  0  0  0  0  0  0  0  0  0  0
   10.3830  -20.4400   21.0210 C   0  0  0  0  0  0  0  0  0  0  0  0
   10.5550  -19.9790   22.3970 N   0  0  0  0  0  0  0  0  0  0  0  0
   11.5270  -19.0870   22.8400 C   0  0  0  0  0  0  0  0  0  0  0  0
   11.8070  -18.9200   24.0260 O   0  0  0  0  0  0  0  0  0  0  0  0
   12.3020  -18.2990   21.8670 C   0  0  0  0  0  0  0  0  0  0  0  0
   13.6690  -18.5560   21.7220 C   0  0  0  0  0  0  0  0  0  0  0  0
   14.4320  -17.7780   20.8460 C   0  0  0  0  0  0  0  0  0  0  0  0
   13.8350  -16.7340   20.1260 C   0  0  0  0  0  0  0  0  0  0  0  0
   14.6170  -15.9360   19.2300 C   0  0  0  0  0  0  0  0  0  0  0  0
   15.2490  -15.2920   18.5000 N   0  0  0  0  0  0  0  0  0  0  0  0
   12.4710  -16.4660   20.2920 C   0  0  0  0  0  0  0  0  0  0  0  0
   11.7160  -17.2450   21.1680 C   0  0  0  0  0  0  0  0  0  0  0  0
   10.4160  -16.9550   21.3210 F   0  0  0  0  0  0  0  0  0  0  0  0
    9.7070  -20.6360   23.3840 C   0  0  0  0  0  0  0  0  0  0  0  0
    8.2340  -20.5360   22.9900 C   0  0  0  0  0  0  0  0  0  0  0  0
    5.6600  -21.5420   22.1420 C   0  0  0  0  0  0  0  0  0  0  0  0
  1  2  3  0
  2  3  1  0
  3  4  1  0
  4  5  1  0
  5  6  1  0
  6  7  2  0
  7  8  1  0
  8  9  2  0
  9 10  1  0
 10 11  2  0
 11 12  1  0
 12 13  1  0
 13 14  1  0
 14 15  2  0
 15 16  1  0
  7 17  1  0
 17 18  2  0
  4 19  1  0
 19 20  1  0
 20 21  1  0
 21 22  1  0
 22 23  1  0
 23 24  1  0
 24 25  1  0
 25 26  2  0
 25 27  1  0
 27 28  2  0
 28 29  1  0
 29 30  2  0
 30 31  1  0
 31 32  3  0
 30 33  1  0
 33 34  2  0
 34 35  1  0
 24 36  1  0
 36 37  1  0
 20 38  1  0
 38  4  1  0
 18  5  1  0
 37 21  1  0
 16  8  1  0
 34 27  1  0
 16 12  2  0
M  END
$$$$
