XWEGZOWJKZVIPT-HXUWFJFHSA-N
     RDKit          3D

 32 36  0  0  0  0  0  0  0  0999 V2000
  -12.3050   11.4000   19.3920 C   0  0  0  0  0  0  0  0  0  0  0  0
  -12.4360   12.8670   19.7910 C   0  0  0  0  0  0  0  0  0  0  0  0
  -13.8560   13.4280   19.5790 C   0  0  0  0  0  0  0  0  0  0  0  0
  -14.9320   12.6290   20.3420 C   0  0  0  0  0  0  0  0  0  0  0  0
  -16.3510   13.1190   20.0840 C   0  0  0  0  0  0  0  0  0  0  0  0
  -13.9410   14.8460   19.9410 N   0  0  0  0  0  0  0  0  0  0  0  0
  -14.3410   15.8860   19.1460 C   0  0  0  0  0  0  0  0  0  0  0  0
  -14.2610   17.0310   19.9160 C   0  0  0  0  0  0  0  0  0  0  0  0
  -14.5940   18.4000   19.5780 C   0  0  0  0  0  0  0  0  0  0  0  0
  -15.8510   18.7400   19.6500 N   0  0  0  0  0  0  0  0  0  0  0  0
  -16.2180   20.0290   19.3010 C   0  0  0  0  0  0  0  0  0  0  0  0
  -17.6250   20.2850   19.4040 C   0  0  0  0  0  0  0  0  0  0  0  0
  -18.3160   21.4850   19.1200 C   0  0  0  0  0  0  0  0  0  0  0  0
  -19.6330   21.3820   19.3210 N   0  0  0  0  0  0  0  0  0  0  0  0
  -19.7900   20.1140   19.7390 N   0  0  0  0  0  0  0  0  0  0  0  0
  -21.1150   19.6180   20.0660 C   0  0  0  0  0  0  0  0  0  0  0  0
  -21.1000   18.7660   21.3390 C   0  0  0  0  0  0  0  0  0  0  0  0
  -22.4310   18.2510   21.7020 N   0  0  0  0  0  0  0  0  0  0  0  0
  -23.5390   19.0110   21.1090 C   0  0  0  0  0  0  0  0  0  0  0  0
  -24.7350   18.7560   22.0270 C   0  0  0  0  0  0  0  0  0  0  0  0
  -24.1560   18.0320   23.2360 C   0  0  1  0  0  0  0  0  0  0  0  0
  -24.3880   16.6280   23.0960 O   0  0  0  0  0  0  0  0  0  0  0  0
  -22.6610   18.3240   23.1570 C   0  0  0  0  0  0  0  0  0  0  0  0
  -18.6170   19.4150   19.8060 C   0  0  0  0  0  0  0  0  0  0  0  0
  -15.3190   20.9420   18.8960 C   0  0  0  0  0  0  0  0  0  0  0  0
  -13.9820   20.6030   18.8370 N   0  0  0  0  0  0  0  0  0  0  0  0
  -12.9370   21.3860   18.4750 N   0  0  0  0  0  0  0  0  0  0  0  0
  -11.8640   20.6150   18.6540 C   0  0  0  0  0  0  0  0  0  0  0  0
  -12.1960   19.3290   19.1090 C   0  0  0  0  0  0  0  0  0  0  0  0
  -13.5700   19.3330   19.1890 C   0  0  0  0  0  0  0  0  0  0  0  0
  -13.8240   16.5480   21.1750 C   0  0  0  0  0  0  0  0  0  0  0  0
  -13.6050   15.2320   21.1840 N   0  0  0  0  0  0  0  0  0  0  0  0
  1  2  1  0
  2  3  1  0
  3  4  1  0
  4  5  1  0
  3  6  1  0
  6  7  1  0
  7  8  2  0
  8  9  1  0
  9 10  2  0
 10 11  1  0
 11 12  1  0
 12 13  1  0
 13 14  2  0
 14 15  1  0
 15 16  1  0
 16 17  1  0
 17 18  1  0
 18 19  1  0
 19 20  1  0
 20 21  1  0
 21 22  1  6
 21 23  1  0
 15 24  1  0
 11 25  2  0
 25 26  1  0
 26 27  1  0
 27 28  2  0
 28 29  1  0
 29 30  2  0
  8 31  1  0
 31 32  2  0
 32  6  1  0
 30  9  1  0
 24 12  2  0
 30 26  1  0
 23 18  1  0
M  END
$$$$
