SGOMNGUCMIYNTA-UHFFFAOYSA-N
     RDKit          3D

 31 33  0  0  0  0  0  0  0  0999 V2000
  -15.1000   -5.7970  -28.2780 C   0  0  0  0  0  0  0  0  0  0  0  0
  -14.7750   -6.6140  -27.0310 C   0  0  0  0  0  0  0  0  0  0  0  0
  -13.4380   -6.2290  -26.3650 C   0  0  1  0  0  0  0  0  0  0  0  0
  -13.4310   -4.7340  -26.0050 C   0  0  0  0  0  0  0  0  0  0  0  0
  -12.7750   -3.8440  -26.5240 O   0  0  0  0  0  0  0  0  0  0  0  0
  -14.2820   -4.4230  -24.9990 O   0  0  0  0  0  0  0  0  0  0  0  0
  -13.1910   -7.0670  -25.0870 C   0  0  0  0  0  0  0  0  0  0  0  0
  -11.7820   -7.4640  -25.3020 C   0  0  0  0  0  0  0  0  0  0  0  0
  -10.9080   -8.1140  -24.4470 C   0  0  0  0  0  0  0  0  0  0  0  0
   -9.6190   -8.4180  -24.9020 C   0  0  0  0  0  0  0  0  0  0  0  0
   -8.8300   -9.0520  -23.9800 O   0  0  0  0  0  0  0  0  0  0  0  0
   -9.4010   -9.2990  -22.6950 C   0  0  0  0  0  0  0  0  0  0  0  0
   -8.8890   -8.2340  -21.7270 C   0  0  0  0  0  0  0  0  0  0  0  0
   -7.4050   -7.9360  -21.9300 C   0  0  0  0  0  0  0  0  0  0  0  0
   -6.8560   -7.5260  -20.6780 O   0  0  0  0  0  0  0  0  0  0  0  0
   -5.9730   -6.4780  -20.6720 C   0  0  0  0  0  0  0  0  0  0  0  0
   -4.5950   -6.6000  -20.8700 C   0  0  0  0  0  0  0  0  0  0  0  0
   -3.7700   -5.4700  -20.8410 C   0  0  0  0  0  0  0  0  0  0  0  0
   -4.3020   -4.1960  -20.6080 C   0  0  0  0  0  0  0  0  0  0  0  0
   -3.4080   -2.9780  -20.5770 C   0  0  0  0  0  0  0  0  0  0  0  0
   -3.5710   -1.9600  -21.7410 C   0  0  0  0  0  0  0  0  0  0  0  0
   -3.6040   -2.7570  -23.0620 C   0  0  0  0  0  0  0  0  0  0  0  0
   -4.8850   -1.1690  -21.6240 C   0  0  0  0  0  0  0  0  0  0  0  0
   -2.3920   -0.9750  -21.8040 C   0  0  0  0  0  0  0  0  0  0  0  0
   -5.6830   -4.0730  -20.4160 C   0  0  0  0  0  0  0  0  0  0  0  0
   -6.5080   -5.2020  -20.4450 C   0  0  0  0  0  0  0  0  0  0  0  0
   -8.2060   -4.9700  -20.1940 Cl  0  0  0  0  0  0  0  0  0  0  0  0
   -9.2400   -8.0760  -26.2110 C   0  0  0  0  0  0  0  0  0  0  0  0
  -10.1390   -7.4270  -27.0660 C   0  0  0  0  0  0  0  0  0  0  0  0
  -11.3960   -7.1300  -26.5850 C   0  0  0  0  0  0  0  0  0  0  0  0
  -12.3690   -6.5050  -27.3130 O   0  0  0  0  0  0  0  0  0  0  0  0
  1  2  1  0
  3  2  1  6
  3  4  1  0
  4  5  2  0
  4  6  1  0
  3  7  1  0
  7  8  1  0
  8  9  2  0
  9 10  1  0
 10 11  1  0
 11 12  1  0
 12 13  1  0
 13 14  1  0
 14 15  1  0
 15 16  1  0
 16 17  2  0
 17 18  1  0
 18 19  2  0
 19 20  1  0
 20 21  1  0
 21 22  1  0
 21 23  1  0
 21 24  1  0
 19 25  1  0
 25 26  2  0
 26 27  1  0
 10 28  2  0
 28 29  1  0
 29 30  2  0
 30 31  1  0
 31  3  1  0
 30  8  1  0
 26 16  1  0
M  END
$$$$
