SZBGAKRKURPQNJ-UHFFFAOYSA-N
     RDKit          3D

 37 39  0  0  0  0  0  0  0  0999 V2000
  128.5210  -14.7490  161.2670 O   0  0  0  0  0  0  0  0  0  0  0  0
  129.0090  -14.0200  162.1280 C   0  0  0  0  0  0  0  0  0  0  0  0
  130.4790  -14.1560  162.5580 C   0  0  0  0  0  0  0  0  0  0  0  0
  130.6830  -15.2460  163.4960 N   0  0  0  0  0  0  0  0  0  0  0  0
  131.8980  -15.8540  163.6920 C   0  0  0  0  0  0  0  0  0  0  0  0
  132.8920  -15.6430  163.0000 O   0  0  0  0  0  0  0  0  0  0  0  0
  131.9130  -16.8560  164.8540 C   0  0  2  0  0  0  0  0  0  0  0  0
  130.4720  -17.2360  165.2350 C   0  0  0  0  0  0  0  0  0  0  0  0
  130.0070  -18.5560  164.6040 C   0  0  0  0  0  0  0  0  0  0  0  0
  128.7180  -18.6310  163.8140 C   0  0  0  0  0  0  0  0  0  0  0  0
  128.6930  -18.0810  162.5160 C   0  0  0  0  0  0  0  0  0  0  0  0
  127.5480  -18.1590  161.7270 C   0  0  0  0  0  0  0  0  0  0  0  0
  126.4200  -18.8030  162.2090 C   0  0  0  0  0  0  0  0  0  0  0  0
  126.4570  -19.3650  163.4800 C   0  0  0  0  0  0  0  0  0  0  0  0
  127.5840  -19.2870  164.2930 N   0  0  0  0  0  0  0  0  0  0  0  0
  127.5240  -19.8040  165.4620 O   0  0  0  0  0  0  0  0  0  0  0  0
  132.5550  -16.2450  166.0400 N   0  0  0  0  0  0  0  0  0  0  0  0
  134.0830  -16.7730  166.5000 S   0  0  0  0  0  0  0  0  0  0  0  0
  134.1250  -16.7030  167.9470 O   0  0  0  0  0  0  0  0  0  0  0  0
  134.9960  -16.0070  165.6760 O   0  0  0  0  0  0  0  0  0  0  0  0
  134.1100  -18.4960  165.9700 C   0  0  0  0  0  0  0  0  0  0  0  0
  133.6720  -19.3690  167.1190 C   0  0  0  0  0  0  0  0  0  0  0  0
  134.6100  -19.8500  168.0440 C   0  0  0  0  0  0  0  0  0  0  0  0
  134.2050  -20.6490  169.1130 C   0  0  0  0  0  0  0  0  0  0  0  0
  132.8610  -20.9790  169.2690 C   0  0  0  0  0  0  0  0  0  0  0  0
  131.9190  -20.5070  168.3590 C   0  0  0  0  0  0  0  0  0  0  0  0
  132.3200  -19.7050  167.2890 C   0  0  0  0  0  0  0  0  0  0  0  0
  128.2590  -13.1260  162.8690 N   0  0  0  0  0  0  0  0  0  0  0  0
  126.8560  -12.8800  162.6180 C   0  0  0  0  0  0  0  0  0  0  0  0
  125.9910  -12.8480  163.8610 C   0  0  0  0  0  0  0  0  0  0  0  0
  125.9410  -11.7210  164.7020 C   0  0  0  0  0  0  0  0  0  0  0  0
  125.1230  -11.7050  165.8310 C   0  0  0  0  0  0  0  0  0  0  0  0
  125.0690  -10.2960  166.8160 Cl  0  0  0  0  0  0  0  0  0  0  0  0
  124.3510  -12.8140  166.1580 C   0  0  0  0  0  0  0  0  0  0  0  0
  124.3920  -13.9470  165.3460 C   0  0  0  0  0  0  0  0  0  0  0  0
  125.2100  -13.9680  164.2120 C   0  0  0  0  0  0  0  0  0  0  0  0
  125.2260  -15.4150  163.2590 Cl  0  0  0  0  0  0  0  0  0  0  0  0
  1  2  2  0
  2  3  1  0
  3  4  1  0
  4  5  1  0
  5  6  2  0
  5  7  1  0
  7  8  1  1
  8  9  1  0
  9 10  1  0
 10 11  2  0
 11 12  1  0
 12 13  2  0
 13 14  1  0
 14 15  2  0
 15 16  1  0
  7 17  1  0
 17 18  1  0
 18 19  2  0
 18 20  2  0
 18 21  1  0
 21 22  1  0
 22 23  2  0
 23 24  1  0
 24 25  2  0
 25 26  1  0
 26 27  2  0
  2 28  1  0
 28 29  1  0
 29 30  1  0
 30 31  2  0
 31 32  1  0
 32 33  1  0
 32 34  2  0
 34 35  1  0
 35 36  2  0
 36 37  1  0
 15 10  1  0
 27 22  1  0
 36 30  1  0
M  CHG  2  15   1  16  -1
M  END
$$$$
