SDNGLJCJUQMLCR-UHFFFAOYSA-N
     RDKit          3D

 29 32  0  0  0  0  0  0  0  0999 V2000
   -1.7300   22.4550  -25.6440 C   0  0  0  0  0  0  0  0  0  0  0  0
   -1.7040   22.6690  -27.1540 C   0  0  0  0  0  0  0  0  0  0  0  0
   -3.1150   22.7260  -27.7710 C   0  0  0  0  0  0  0  0  0  0  0  0
   -3.6950   21.3290  -28.0770 C   0  0  0  0  0  0  0  0  0  0  0  0
   -5.2130   21.2430  -28.1530 C   0  0  0  0  0  0  0  0  0  0  0  0
   -3.2090   23.6130  -28.9280 N   0  0  0  0  0  0  0  0  0  0  0  0
   -4.1080   24.6320  -29.0980 C   0  0  0  0  0  0  0  0  0  0  0  0
   -3.8350   25.2110  -30.3230 C   0  0  0  0  0  0  0  0  0  0  0  0
   -4.4630   26.3370  -30.9840 C   0  0  0  0  0  0  0  0  0  0  0  0
   -4.2340   27.5180  -30.4840 N   0  0  0  0  0  0  0  0  0  0  0  0
   -4.8380   28.6240  -31.0620 C   0  0  0  0  0  0  0  0  0  0  0  0
   -4.5200   29.8720  -30.4300 C   0  0  0  0  0  0  0  0  0  0  0  0
   -4.8530   31.1890  -30.8190 C   0  0  0  0  0  0  0  0  0  0  0  0
   -4.3820   32.1120  -29.9730 N   0  0  0  0  0  0  0  0  0  0  0  0
   -3.7350   31.3840  -29.0430 N   0  0  0  0  0  0  0  0  0  0  0  0
   -3.0670   32.0470  -27.9430 C   0  0  0  0  0  0  0  0  0  0  0  0
   -4.0340   32.7970  -27.0300 C   0  0  1  0  0  0  0  0  0  0  0  0
   -5.2980   32.1090  -27.0270 O   0  0  0  0  0  0  0  0  0  0  0  0
   -3.5370   32.8940  -25.5750 C   0  0  0  0  0  0  0  0  0  0  0  0
   -4.5710   33.5450  -24.7470 N   0  0  0  0  0  0  0  0  0  0  0  0
   -3.7930   30.0410  -29.2710 C   0  0  0  0  0  0  0  0  0  0  0  0
   -5.6570   28.5150  -32.1220 C   0  0  0  0  0  0  0  0  0  0  0  0
   -5.8940   27.2710  -32.6740 N   0  0  0  0  0  0  0  0  0  0  0  0
   -6.6690   26.9690  -33.7430 N   0  0  0  0  0  0  0  0  0  0  0  0
   -6.5080   25.6570  -33.9120 C   0  0  0  0  0  0  0  0  0  0  0  0
   -5.6540   25.0910  -32.9520 C   0  0  0  0  0  0  0  0  0  0  0  0
   -5.2970   26.1460  -32.1410 C   0  0  0  0  0  0  0  0  0  0  0  0
   -2.7200   24.4700  -30.7900 C   0  0  0  0  0  0  0  0  0  0  0  0
   -2.3520   23.4940  -29.9580 N   0  0  0  0  0  0  0  0  0  0  0  0
  1  2  1  0
  2  3  1  0
  3  4  1  0
  4  5  1  0
  3  6  1  0
  6  7  1  0
  7  8  2  0
  8  9  1  0
  9 10  2  0
 10 11  1  0
 11 12  1  0
 12 13  1  0
 13 14  2  0
 14 15  1  0
 15 16  1  0
 16 17  1  0
 17 18  1  1
 17 19  1  0
 19 20  1  0
 15 21  1  0
 11 22  2  0
 22 23  1  0
 23 24  1  0
 24 25  2  0
 25 26  1  0
 26 27  2  0
  8 28  1  0
 28 29  2  0
 29  6  1  0
 27  9  1  0
 21 12  2  0
 27 23  1  0
M  END
$$$$
