MPSJBYFGZHSLRS-UHFFFAOYSA-N
     RDKit          3D

 23 25  0  0  0  0  0  0  0  0999 V2000
  125.4490  -12.0660  164.9450 C   0  0  0  0  0  0  0  0  0  0  0  0
  126.5190  -12.3450  163.9020 C   0  0  0  0  0  0  0  0  0  0  0  0
  126.8740  -13.8140  163.8480 C   0  0  0  0  0  0  0  0  0  0  0  0
  126.4300  -14.6860  164.5900 O   0  0  0  0  0  0  0  0  0  0  0  0
  127.7920  -14.1510  162.8430 N   0  0  0  0  0  0  0  0  0  0  0  0
  127.5360  -13.9010  161.5340 N   0  0  0  0  0  0  0  0  0  0  0  0
  128.6370  -14.3620  160.9200 C   0  0  0  0  0  0  0  0  0  0  0  0
  128.8560  -14.3240  159.4670 C   0  0  0  0  0  0  0  0  0  0  0  0
  128.1930  -15.2240  158.6330 C   0  0  0  0  0  0  0  0  0  0  0  0
  128.4200  -15.1650  157.2600 C   0  0  0  0  0  0  0  0  0  0  0  0
  129.2980  -14.2130  156.7560 C   0  0  0  0  0  0  0  0  0  0  0  0
  129.9160  -13.3540  157.6490 C   0  0  0  0  0  0  0  0  0  0  0  0
  129.7170  -13.3880  158.9840 N   0  0  0  0  0  0  0  0  0  0  0  0
  129.5750  -14.8900  161.7840 N   0  0  0  0  0  0  0  0  0  0  0  0
  129.0380  -14.7530  162.9730 C   0  0  0  0  0  0  0  0  0  0  0  0
  129.5640  -15.1180  164.1600 N   0  0  0  0  0  0  0  0  0  0  0  0
  130.1540  -16.4240  164.3350 C   0  0  0  0  0  0  0  0  0  0  0  0
  131.3700  -16.3130  165.2220 C   0  0  0  0  0  0  0  0  0  0  0  0
  131.2490  -16.4260  166.6140 C   0  0  0  0  0  0  0  0  0  0  0  0
  132.3700  -16.2990  167.4360 C   0  0  0  0  0  0  0  0  0  0  0  0
  133.6210  -16.0480  166.8740 C   0  0  0  0  0  0  0  0  0  0  0  0
  133.7520  -15.9190  165.4920 C   0  0  0  0  0  0  0  0  0  0  0  0
  132.6320  -16.0470  164.6700 C   0  0  0  0  0  0  0  0  0  0  0  0
  1  2  1  0
  2  3  1  0
  3  4  2  0
  3  5  1  0
  5  6  1  0
  6  7  2  0
  7  8  1  0
  8  9  2  0
  9 10  1  0
 10 11  2  0
 11 12  1  0
 12 13  2  0
  7 14  1  0
 14 15  2  0
 15 16  1  0
 16 17  1  0
 17 18  1  0
 18 19  2  0
 19 20  1  0
 20 21  2  0
 21 22  1  0
 22 23  2  0
 15  5  1  0
 23 18  1  0
 13  8  1  0
M  END
$$$$
