BGRNRDBRZYUNFJ-UHFFFAOYSA-N
     RDKit          3D

 34 37  0  0  0  0  0  0  0  0999 V2000
   -8.4320   -7.8070  -21.3550 C   0  0  0  0  0  0  0  0  0  0  0  0
   -9.2780   -8.8830  -22.0740 C   0  0  0  0  0  0  0  0  0  0  0  0
   -8.4420  -10.1800  -22.0960 C   0  0  0  0  0  0  0  0  0  0  0  0
  -10.5460   -9.1080  -21.2220 C   0  0  0  0  0  0  0  0  0  0  0  0
   -9.6800   -8.5010  -23.5090 C   0  0  0  0  0  0  0  0  0  0  0  0
   -8.7180   -7.9860  -24.3990 C   0  0  0  0  0  0  0  0  0  0  0  0
   -9.0450   -7.6310  -25.7110 C   0  0  0  0  0  0  0  0  0  0  0  0
  -10.3540   -7.7850  -26.1710 C   0  0  0  0  0  0  0  0  0  0  0  0
  -10.6970   -7.4120  -27.5060 N   0  0  0  0  0  0  0  0  0  0  0  0
  -11.5690   -6.3910  -27.8750 C   0  0  0  0  0  0  0  0  0  0  0  0
  -12.4010   -5.6430  -26.9740 C   0  0  0  0  0  0  0  0  0  0  0  0
  -13.5010   -5.9350  -26.5340 O   0  0  0  0  0  0  0  0  0  0  0  0
  -11.8180   -4.4850  -26.5950 O   0  0  0  0  0  0  0  0  0  0  0  0
  -11.5410   -6.3170  -29.2560 C   0  0  0  0  0  0  0  0  0  0  0  0
  -12.3210   -5.4510  -29.9480 O   0  0  0  0  0  0  0  0  0  0  0  0
  -11.7810   -4.3830  -30.6220 C   0  0  0  0  0  0  0  0  0  0  0  0
  -11.2200   -3.2830  -29.9780 C   0  0  0  0  0  0  0  0  0  0  0  0
  -10.7160   -2.2220  -30.7350 C   0  0  0  0  0  0  0  0  0  0  0  0
  -10.7820   -2.2430  -32.1320 C   0  0  0  0  0  0  0  0  0  0  0  0
  -10.2510   -1.1400  -32.7370 O   0  0  0  0  0  0  0  0  0  0  0  0
   -8.8450   -0.9730  -32.6930 C   0  0  0  0  0  0  0  0  0  0  0  0
   -8.4570   -0.3970  -31.5360 F   0  0  0  0  0  0  0  0  0  0  0  0
   -8.2090   -2.1550  -32.8440 F   0  0  0  0  0  0  0  0  0  0  0  0
   -8.4730   -0.1650  -33.7090 F   0  0  0  0  0  0  0  0  0  0  0  0
  -11.3660   -3.3390  -32.7690 C   0  0  0  0  0  0  0  0  0  0  0  0
  -11.8710   -4.4040  -32.0130 C   0  0  0  0  0  0  0  0  0  0  0  0
  -10.7040   -7.3420  -29.7650 C   0  0  0  0  0  0  0  0  0  0  0  0
  -10.3530   -7.7800  -31.0640 C   0  0  0  0  0  0  0  0  0  0  0  0
   -9.4340   -8.8170  -31.2300 C   0  0  0  0  0  0  0  0  0  0  0  0
   -8.8550   -9.4210  -30.1230 C   0  0  0  0  0  0  0  0  0  0  0  0
   -9.1990   -9.0210  -28.8290 C   0  0  0  0  0  0  0  0  0  0  0  0
  -10.1600   -8.0020  -28.6590 C   0  0  0  0  0  0  0  0  0  0  0  0
  -11.3270   -8.2970  -25.3100 C   0  0  0  0  0  0  0  0  0  0  0  0
  -10.9900   -8.6480  -23.9960 C   0  0  0  0  0  0  0  0  0  0  0  0
  1  2  1  0
  2  3  1  0
  2  4  1  0
  2  5  1  0
  5  6  2  0
  6  7  1  0
  7  8  2  0
  8  9  1  0
  9 10  1  0
 10 11  1  0
 11 12  2  0
 11 13  1  0
 10 14  2  0
 14 15  1  0
 15 16  1  0
 16 17  2  0
 17 18  1  0
 18 19  2  0
 19 20  1  0
 20 21  1  0
 21 22  1  0
 21 23  1  0
 21 24  1  0
 19 25  1  0
 25 26  2  0
 14 27  1  0
 27 28  2  0
 28 29  1  0
 29 30  2  0
 30 31  1  0
 31 32  2  0
  8 33  1  0
 33 34  2  0
 34  5  1  0
 32  9  1  0
 26 16  1  0
 32 27  1  0
M  END
$$$$
