ZMBLKJNXJLBMMG-SGEDCAFJSA-N
     RDKit          3D

 31 34  0  0  0  0  0  0  0  0999 V2000
  135.3680  111.0760   41.1190 O   0  0  0  0  0  0  0  0  0  0  0  0
  135.9120  112.1790   41.0980 C   0  0  0  0  0  0  0  0  0  0  0  0
  136.7870  112.6240   39.9300 C   0  0  0  0  0  0  0  0  0  0  0  0
  136.9770  114.0290   39.9450 O   0  0  0  0  0  0  0  0  0  0  0  0
  138.3150  114.3100   40.2870 N   0  0  0  0  0  0  0  0  0  0  0  0
  138.3310  115.1840   41.2180 N   0  0  0  0  0  0  0  0  0  0  0  0
  137.3040  115.7200   41.7480 O   0  0  0  0  0  0  0  0  0  0  0  0
  139.6310  115.6180   41.7160 N   0  0  0  0  0  0  0  0  0  0  0  0
  139.8130  116.8590   42.4210 C   0  0  0  0  0  0  0  0  0  0  0  0
  141.3290  117.0240   42.4560 C   0  0  0  0  0  0  0  0  0  0  0  0
  141.8360  115.5840   42.4570 C   0  0  0  0  0  0  0  0  0  0  0  0
  140.8440  114.8650   41.5480 C   0  0  0  0  0  0  0  0  0  0  0  0
  135.7590  113.1140   42.0980 N   0  0  0  0  0  0  0  0  0  0  0  0
  134.9410  112.8800   43.2700 C   0  0  0  0  0  0  0  0  0  0  0  0
  133.6090  113.6190   43.1780 C   0  0  0  0  0  0  0  0  0  0  0  0
  133.7730  115.0250   42.6060 C   0  0  0  0  0  0  0  0  0  0  0  0
  132.8000  115.2540   41.5420 N   0  0  0  0  0  0  0  0  0  0  0  0
  133.3240  115.5860   40.2770 C   0  0  0  0  0  0  0  0  0  0  0  0
  133.6670  116.9230   39.9930 C   0  0  0  0  0  0  0  0  0  0  0  0
  134.1390  117.2190   38.7120 C   0  0  0  0  0  0  0  0  0  0  0  0
  134.2360  116.2960   37.7270 N   0  0  0  0  0  0  0  0  0  0  0  0
  133.9020  115.0260   37.9920 C   0  0  0  0  0  0  0  0  0  0  0  0
  134.0250  114.0900   36.9740 C   0  0  0  0  0  0  0  0  0  0  0  0
  133.7200  112.7410   37.1650 C   0  0  0  0  0  0  0  0  0  0  0  0
  133.2880  112.3080   38.4090 C   0  0  0  0  0  0  0  0  0  0  0  0
  133.1550  113.2310   39.4460 C   0  0  0  0  0  0  0  0  0  0  0  0
  133.4420  114.6050   39.2560 C   0  0  0  0  0  0  0  0  0  0  0  0
  134.5170  118.6200   38.3070 C   0  0  0  0  0  0  0  0  0  0  0  0
  134.8020  119.5350   39.4920 C   0  0  0  0  0  0  0  0  0  0  0  0
  133.6770  119.4230   40.5080 C   0  0  0  0  0  0  0  0  0  0  0  0
  133.5880  117.9990   41.0520 C   0  0  0  0  0  0  0  0  0  0  0  0
  1  2  2  0
  2  3  1  0
  3  4  1  0
  4  5  1  0
  5  6  2  0
  6  7  1  0
  6  8  1  0
  8  9  1  0
  9 10  1  0
 10 11  1  0
 11 12  1  0
  2 13  1  0
 13 14  1  0
 14 15  1  0
 15 16  1  0
 16 17  1  0
 17 18  1  0
 18 19  2  0
 19 20  1  0
 20 21  2  0
 21 22  1  0
 22 23  2  0
 23 24  1  0
 24 25  2  0
 25 26  1  0
 26 27  2  0
 20 28  1  0
 28 29  1  0
 29 30  1  0
 30 31  1  0
 12  8  1  0
 27 18  1  0
 31 19  1  0
 27 22  1  0
M  CHG  2   6   1   7  -1
M  END
$$$$
