IKXDZCIRCQRTQF-UHFFFAOYSA-N
     RDKit          3D

 31 35  0  0  0  0  0  0  0  0999 V2000
   17.4700   30.0260    6.4260 O   0  0  0  0  0  0  0  0  0  0  0  0
   17.3480   30.9440    7.2200 C   0  0  0  0  0  0  0  0  0  0  0  0
   16.4840   32.1970    7.0440 C   0  0  0  0  0  0  0  0  0  0  0  0
   16.7380   32.9380    8.3240 C   0  0  0  0  0  0  0  0  0  0  0  0
   16.2300   34.1460    8.7630 C   0  0  0  0  0  0  0  0  0  0  0  0
   16.6420   34.6060   10.0180 C   0  0  0  0  0  0  0  0  0  0  0  0
   17.5540   33.8670   10.7970 C   0  0  0  0  0  0  0  0  0  0  0  0
   17.8680   34.4000   12.0300 O   0  0  0  0  0  0  0  0  0  0  0  0
   18.9130   33.8270   12.7170 C   0  0  0  0  0  0  0  0  0  0  0  0
   20.1800   33.7300   12.1380 C   0  0  0  0  0  0  0  0  0  0  0  0
   21.2390   33.1730   12.8650 C   0  0  0  0  0  0  0  0  0  0  0  0
   21.0620   32.7190   14.1770 C   0  0  0  0  0  0  0  0  0  0  0  0
   22.0930   32.1540   14.9450 N   0  0  0  0  0  0  0  0  0  0  0  0
   23.0320   32.7300   15.8100 C   0  0  0  0  0  0  0  0  0  0  0  0
   22.7490   32.8970   17.1250 N   0  0  0  0  0  0  0  0  0  0  0  0
   23.6150   33.5500   17.9140 C   0  0  0  0  0  0  0  0  0  0  0  0
   24.7870   34.0870   17.5710 N   0  0  0  0  0  0  0  0  0  0  0  0
   25.0960   33.8940   16.2730 C   0  0  0  0  0  0  0  0  0  0  0  0
   26.2560   34.3210   15.5890 C   0  0  0  0  0  0  0  0  0  0  0  0
   26.1520   33.8710   14.2940 C   0  0  0  0  0  0  0  0  0  0  0  0
   24.9680   33.1740   14.1790 N   0  0  0  0  0  0  0  0  0  0  0  0
   24.6250   32.4180   12.9800 C   0  0  0  0  0  0  0  0  0  0  0  0
   25.7200   31.4400   12.5700 C   0  0  0  0  0  0  0  0  0  0  0  0
   25.1710   30.1360   12.3820 O   0  0  0  0  0  0  0  0  0  0  0  0
   24.2730   33.2180   15.3730 C   0  0  0  0  0  0  0  0  0  0  0  0
   19.7880   32.8540   14.7530 C   0  0  0  0  0  0  0  0  0  0  0  0
   18.7240   33.4080   14.0340 C   0  0  0  0  0  0  0  0  0  0  0  0
   17.1850   33.5370   14.8060 Cl  0  0  0  0  0  0  0  0  0  0  0  0
   18.0460   32.6350   10.3520 C   0  0  0  0  0  0  0  0  0  0  0  0
   17.6250   32.2070    9.1120 C   0  0  0  0  0  0  0  0  0  0  0  0
   17.9770   31.0370    8.4570 N   0  0  0  0  0  0  0  0  0  0  0  0
  1  2  2  0
  2  3  1  0
  3  4  1  0
  4  5  2  0
  5  6  1  0
  6  7  2  0
  7  8  1  0
  8  9  1  0
  9 10  2  0
 10 11  1  0
 11 12  2  0
 12 13  1  0
 13 14  1  0
 14 15  2  0
 15 16  1  0
 16 17  2  0
 17 18  1  0
 18 19  1  0
 19 20  2  0
 20 21  1  0
 21 22  1  0
 22 23  1  0
 23 24  1  0
 21 25  1  0
 12 26  1  0
 26 27  2  0
 27 28  1  0
  7 29  1  0
 29 30  2  0
 30 31  1  0
 31  2  1  0
 30  4  1  0
 27  9  1  0
 25 14  1  0
 25 18  2  0
M  END
$$$$
