FRQFIGQZHAECJO-FNORWQNLSA-N
     RDKit          3D

 39 42  0  0  0  0  0  0  0  0999 V2000
   16.8240   -0.8170   26.5400 C   0  0  0  0  0  0  0  0  0  0  0  0
   16.8280    0.4370   27.2150 O   0  0  0  0  0  0  0  0  0  0  0  0
   16.9240    1.5670   26.4370 C   0  0  0  0  0  0  0  0  0  0  0  0
   17.8170    1.7370   25.3760 C   0  0  0  0  0  0  0  0  0  0  0  0
   17.8490    2.9070   24.6280 C   0  0  0  0  0  0  0  0  0  0  0  0
   18.7260    2.9800   23.6170 N   0  0  0  0  0  0  0  0  0  0  0  0
   18.7530    4.1100   22.8750 C   0  0  0  0  0  0  0  0  0  0  0  0
   17.9350    5.2040   23.0890 C   0  0  0  0  0  0  0  0  0  0  0  0
   18.1080    6.3530   22.2560 C   0  0  0  0  0  0  0  0  0  0  0  0
   18.2890    7.2540   21.5480 N   0  0  0  0  0  0  0  0  0  0  0  0
   17.0210    5.1440   24.1520 C   0  0  0  0  0  0  0  0  0  0  0  0
   16.1400    6.2160   24.4370 N   0  0  0  0  0  0  0  0  0  0  0  0
   14.7450    6.3060   24.2910 C   0  0  0  0  0  0  0  0  0  0  0  0
   13.8830    6.5020   25.3730 C   0  0  0  0  0  0  0  0  0  0  0  0
   12.4920    6.5640   25.1920 C   0  0  0  0  0  0  0  0  0  0  0  0
   11.9130    6.4140   23.9280 C   0  0  0  0  0  0  0  0  0  0  0  0
   10.5460    6.4930   23.7200 N   0  0  0  0  0  0  0  0  0  0  0  0
    9.5360    6.3830   24.7480 C   0  0  0  0  0  0  0  0  0  0  0  0
    8.6370    7.5890   24.7180 C   0  0  0  0  0  0  0  0  0  0  0  0
    7.4770    7.6150   23.9360 C   0  0  0  0  0  0  0  0  0  0  0  0
    6.6680    8.7480   23.9380 C   0  0  0  0  0  0  0  0  0  0  0  0
    7.0490    9.8230   24.7220 C   0  0  0  0  0  0  0  0  0  0  0  0
    8.1580    9.8370   25.4910 N   0  0  0  0  0  0  0  0  0  0  0  0
    8.9220    8.7200   25.4770 C   0  0  0  0  0  0  0  0  0  0  0  0
   12.7930    6.2040   22.8460 C   0  0  0  0  0  0  0  0  0  0  0  0
   12.1730    6.0110   21.2370 Cl  0  0  0  0  0  0  0  0  0  0  0  0
   14.1810    6.1470   23.0240 C   0  0  0  0  0  0  0  0  0  0  0  0
   16.9660    3.9600   24.9460 C   0  0  0  0  0  0  0  0  0  0  0  0
   16.0620    3.7820   26.0200 C   0  0  0  0  0  0  0  0  0  0  0  0
   16.0390    2.6040   26.7680 C   0  0  0  0  0  0  0  0  0  0  0  0
   15.1500    2.3800   27.8440 N   0  0  0  0  0  0  0  0  0  0  0  0
   13.8220    2.0200   27.7850 C   0  0  0  0  0  0  0  0  0  0  0  0
   13.1390    1.8880   26.7790 O   0  0  0  0  0  0  0  0  0  0  0  0
   13.2510    1.7960   29.1430 C   0  0  0  0  0  0  0  0  0  0  0  0
   12.2040    0.9730   29.3180 C   0  0  0  0  0  0  0  0  0  0  0  0
   11.5450    0.6390   30.6290 C   0  0  0  0  0  0  0  0  0  0  0  0
   10.0900    0.4380   30.5570 N   0  0  0  0  0  0  0  0  0  0  0  0
    9.6840   -0.6430   31.4580 C   0  0  0  0  0  0  0  0  0  0  0  0
    9.3740    1.6670   30.9220 C   0  0  0  0  0  0  0  0  0  0  0  0
  1  2  1  0
  2  3  1  0
  3  4  2  0
  4  5  1  0
  5  6  2  0
  6  7  1  0
  7  8  2  0
  8  9  1  0
  9 10  3  0
  8 11  1  0
 11 12  1  0
 12 13  1  0
 13 14  2  0
 14 15  1  0
 15 16  2  0
 16 17  1  0
 17 18  1  0
 18 19  1  0
 19 20  2  0
 20 21  1  0
 21 22  2  0
 22 23  1  0
 23 24  2  0
 16 25  1  0
 25 26  1  0
 25 27  2  0
 11 28  2  0
 28 29  1  0
 29 30  2  0
 30 31  1  0
 31 32  1  0
 32 33  2  0
 32 34  1  0
 34 35  2  0
 35 36  1  0
 36 37  1  0
 37 38  1  0
 37 39  1  0
 30  3  1  0
 28  5  1  0
 27 13  1  0
 24 19  1  0
M  END
$$$$
