MJHLFPYZTLHAHB-UHFFFAOYSA-N
     RDKit          3D

 34 37  0  0  0  0  0  0  0  0999 V2000
   10.0700   10.7290  -14.0040 C   0  0  0  0  0  0  0  0  0  0  0  0
   11.2580   10.5120  -13.0710 C   0  0  0  0  0  0  0  0  0  0  0  0
   12.2460    9.5100  -13.6650 C   0  0  0  0  0  0  0  0  0  0  0  0
   10.8630   10.0970  -11.6940 C   0  0  0  0  0  0  0  0  0  0  0  0
   10.9560   11.0790  -10.7430 O   0  0  0  0  0  0  0  0  0  0  0  0
   10.6100   10.4810   -9.5690 C   0  0  0  0  0  0  0  0  0  0  0  0
   10.6270   11.2820   -8.3440 C   0  0  0  0  0  0  0  0  0  0  0  0
   11.1330   10.6530   -7.1850 C   0  0  0  0  0  0  0  0  0  0  0  0
   11.2130   11.3280   -5.9620 C   0  0  0  0  0  0  0  0  0  0  0  0
   10.7840   12.6480   -5.8750 C   0  0  0  0  0  0  0  0  0  0  0  0
   10.8710   13.4790   -4.3750 Cl  0  0  0  0  0  0  0  0  0  0  0  0
   10.2850   13.2970   -6.9990 C   0  0  0  0  0  0  0  0  0  0  0  0
   10.2080   12.6240   -8.2300 C   0  0  0  0  0  0  0  0  0  0  0  0
    9.6130   13.5690   -9.5550 Cl  0  0  0  0  0  0  0  0  0  0  0  0
   10.2770    9.2100   -9.7050 N   0  0  0  0  0  0  0  0  0  0  0  0
   10.4480    8.9470  -11.0500 C   0  0  0  0  0  0  0  0  0  0  0  0
   10.1810    7.5770  -11.5730 C   0  0  0  0  0  0  0  0  0  0  0  0
   11.2390    6.5520  -11.1540 C   0  0  0  0  0  0  0  0  0  0  0  0
   10.6480    5.3510  -10.4980 C   0  0  0  0  0  0  0  0  0  0  0  0
   10.5470    4.2000  -11.1800 N   0  0  0  0  0  0  0  0  0  0  0  0
    9.9660    3.2960  -10.3030 O   0  0  0  0  0  0  0  0  0  0  0  0
    9.7320    3.9040   -9.1090 C   0  0  0  0  0  0  0  0  0  0  0  0
    9.1540    3.3110   -7.9850 C   0  0  0  0  0  0  0  0  0  0  0  0
    9.0100    4.1300   -6.8620 C   0  0  0  0  0  0  0  0  0  0  0  0
    8.4820    3.7400   -5.6610 O   0  0  0  0  0  0  0  0  0  0  0  0
    9.2980    3.1120   -4.6570 C   0  0  0  0  0  0  0  0  0  0  0  0
   10.7830    3.0640   -5.0620 C   0  0  0  0  0  0  0  0  0  0  0  0
    8.7670    1.6640   -4.6180 C   0  0  0  0  0  0  0  0  0  0  0  0
    9.1050    3.6710   -3.2310 C   0  0  0  0  0  0  0  0  0  0  0  0
    8.0800    3.6560   -2.5640 O   0  0  0  0  0  0  0  0  0  0  0  0
   10.2320    4.1990   -2.6990 O   0  0  0  0  0  0  0  0  0  0  0  0
    9.4660    5.4570   -6.8820 C   0  0  0  0  0  0  0  0  0  0  0  0
   10.0360    6.0250   -8.0320 C   0  0  0  0  0  0  0  0  0  0  0  0
   10.1580    5.2180   -9.1730 C   0  0  0  0  0  0  0  0  0  0  0  0
  1  2  1  0
  2  3  1  0
  2  4  1  0
  4  5  1  0
  5  6  1  0
  6  7  1  0
  7  8  2  0
  8  9  1  0
  9 10  2  0
 10 11  1  0
 10 12  1  0
 12 13  2  0
 13 14  1  0
  6 15  2  0
 15 16  1  0
 16 17  1  0
 17 18  1  0
 18 19  1  0
 19 20  2  0
 20 21  1  0
 21 22  1  0
 22 23  2  0
 23 24  1  0
 24 25  1  0
 25 26  1  0
 26 27  1  0
 26 28  1  0
 26 29  1  0
 29 30  2  0
 29 31  1  0
 24 32  2  0
 32 33  1  0
 33 34  2  0
 16  4  2  0
 34 19  1  0
 13  7  1  0
 34 22  1  0
M  END
$$$$
