NDGWCDFBMHRQMA-HKALDPMFSA-N
     RDKit          3D

 31 33  0  0  0  0  0  0  0  0999 V2000
    3.0170  -14.6170   15.7870 N   0  0  0  0  0  0  0  0  0  0  0  0
    2.2990  -15.1720   16.5100 C   0  0  0  0  0  0  0  0  0  0  0  0
    1.4120  -15.8470   17.4740 C   0  0  2  0  0  0  0  0  0  0  0  0
    0.0270  -15.1930   17.4710 C   0  0  0  0  0  0  0  0  0  0  0  0
   -0.9480  -15.9090   18.4060 C   0  0  0  0  0  0  0  0  0  0  0  0
   -0.2750  -16.5640   19.6120 C   0  0  0  0  0  0  0  0  0  0  0  0
    1.0030  -15.8380   20.0210 C   0  0  0  0  0  0  0  0  0  0  0  0
    2.0440  -15.7870   18.8830 C   0  0  1  0  0  0  0  0  0  0  0  0
    3.0610  -16.8310   19.0250 N   0  0  0  0  0  0  0  0  0  0  0  0
    4.3820  -16.6480   19.3030 C   0  0  0  0  0  0  0  0  0  0  0  0
    4.9560  -17.9070   19.2790 C   0  0  0  0  0  0  0  0  0  0  0  0
    6.3410  -18.2760   19.4990 C   0  0  0  0  0  0  0  0  0  0  0  0
    6.9050  -17.8720   20.6730 N   0  0  0  0  0  0  0  0  0  0  0  0
    6.9960  -18.9190   18.6820 O   0  0  0  0  0  0  0  0  0  0  0  0
    3.8710  -18.7920   18.9810 C   0  0  0  0  0  0  0  0  0  0  0  0
    4.0560  -20.1310   18.8720 N   0  0  0  0  0  0  0  0  0  0  0  0
    4.5340  -21.1010   19.7780 C   0  0  0  0  0  0  0  0  0  0  0  0
    4.9680  -22.3380   19.2660 C   0  0  0  0  0  0  0  0  0  0  0  0
    5.4500  -23.3470   20.1070 C   0  0  0  0  0  0  0  0  0  0  0  0
    5.5100  -23.1180   21.4810 C   0  0  0  0  0  0  0  0  0  0  0  0
    6.1380  -24.3880   22.5610 S   0  0  0  0  0  0  0  0  0  0  0  0
    7.4220  -24.7930   22.0230 O   0  0  0  0  0  0  0  0  0  0  0  0
    6.0130  -23.8800   23.9120 O   0  0  0  0  0  0  0  0  0  0  0  0
    4.9780  -25.6830   22.3220 C   0  0  0  0  0  0  0  0  0  0  0  0
    5.4190  -26.8740   23.0970 C   0  0  0  0  0  0  0  0  0  0  0  0
    6.2910  -26.5720   24.0780 F   0  0  0  0  0  0  0  0  0  0  0  0
    4.3970  -27.5710   23.6250 F   0  0  0  0  0  0  0  0  0  0  0  0
    6.0690  -27.7220   22.2560 F   0  0  0  0  0  0  0  0  0  0  0  0
    5.0650  -21.9110   22.0190 C   0  0  0  0  0  0  0  0  0  0  0  0
    4.5830  -20.9130   21.1640 C   0  0  0  0  0  0  0  0  0  0  0  0
    2.7310  -18.1120   18.8240 N   0  0  0  0  0  0  0  0  0  0  0  0
  1  2  3  0
  3  2  1  6
  3  4  1  0
  4  5  1  0
  5  6  1  0
  6  7  1  0
  7  8  1  0
  8  9  1  1
  9 10  1  0
 10 11  2  0
 11 12  1  0
 12 13  1  0
 12 14  2  0
 11 15  1  0
 15 16  1  0
 16 17  1  0
 17 18  2  0
 18 19  1  0
 19 20  2  0
 20 21  1  0
 21 22  2  0
 21 23  2  0
 21 24  1  0
 24 25  1  0
 25 26  1  0
 25 27  1  0
 25 28  1  0
 20 29  1  0
 29 30  2  0
 15 31  2  0
  8  3  1  0
 31  9  1  0
 30 17  1  0
M  END
$$$$
