NWRYHCNPTDKBAI-FYYLOGMGSA-N
     RDKit          3D

 41 46  0  0  0  0  0  0  0  0999 V2000
   21.3400   41.6420   21.2050 O   0  0  0  0  0  0  0  0  0  0  0  0
   21.9260   40.5840   21.4010 C   0  0  0  0  0  0  0  0  0  0  0  0
   21.2930   39.4280   21.7360 O   0  0  0  0  0  0  0  0  0  0  0  0
   20.6390   38.7450   20.6480 C   0  0  1  0  0  0  0  0  0  0  0  0
   20.8050   37.2320   20.7730 C   0  0  0  0  0  0  0  0  0  0  0  0
   19.6350   36.7850   21.5530 N   0  0  0  0  0  0  0  0  0  0  0  0
   18.5250   37.6160   21.0750 C   0  0  2  0  0  0  0  0  0  0  0  0
   17.9150   37.0140   19.8790 C   0  0  0  0  0  0  0  0  0  0  0  0
   17.4220   36.5090   18.9070 C   0  0  0  0  0  0  0  0  0  0  0  0
   16.8170   35.9170   17.7610 C   0  0  0  0  0  0  0  0  0  0  0  0
   15.5090   35.4990   17.6940 C   0  0  0  0  0  0  0  0  0  0  0  0
   15.1780   34.9500   16.4210 C   0  0  0  0  0  0  0  0  0  0  0  0
   13.9630   34.4600   16.0790 N   0  0  0  0  0  0  0  0  0  0  0  0
   13.8970   34.0030   14.8270 C   0  0  0  0  0  0  0  0  0  0  0  0
   14.8790   33.9810   13.9130 N   0  0  0  0  0  0  0  0  0  0  0  0
   16.0980   34.4670   14.2390 C   0  0  0  0  0  0  0  0  0  0  0  0
   17.1630   34.4760   13.3280 N   0  0  0  0  0  0  0  0  0  0  0  0
   17.3190   33.9050   12.0580 C   0  0  0  0  0  0  0  0  0  0  0  0
   16.8380   34.5970   10.9390 C   0  0  0  0  0  0  0  0  0  0  0  0
   16.9710   34.0590    9.6590 C   0  0  0  0  0  0  0  0  0  0  0  0
   17.5870   32.8290    9.5230 C   0  0  0  0  0  0  0  0  0  0  0  0
   17.6960   32.3370    8.2390 O   0  0  0  0  0  0  0  0  0  0  0  0
   16.4710   32.4070    7.5120 C   0  0  0  0  0  0  0  0  0  0  0  0
   15.9480   30.9980    7.3690 C   0  0  0  0  0  0  0  0  0  0  0  0
   14.6170   30.6950    7.6940 C   0  0  0  0  0  0  0  0  0  0  0  0
   14.1350   29.3880    7.5830 C   0  0  0  0  0  0  0  0  0  0  0  0
   14.9840   28.3690    7.1540 C   0  0  0  0  0  0  0  0  0  0  0  0
   16.3070   28.6650    6.8440 C   0  0  0  0  0  0  0  0  0  0  0  0
   17.1230   27.6850    6.4400 F   0  0  0  0  0  0  0  0  0  0  0  0
   16.7960   29.9630    6.9500 C   0  0  0  0  0  0  0  0  0  0  0  0
   18.0690   32.1210   10.5610 N   0  0  0  0  0  0  0  0  0  0  0  0
   17.9220   32.6750   11.7950 C   0  0  0  0  0  0  0  0  0  0  0  0
   16.2550   34.9680   15.5420 C   0  0  0  0  0  0  0  0  0  0  0  0
   17.6470   35.6510   16.2960 S   0  0  0  0  0  0  0  0  0  0  0  0
   19.1350   38.9860   20.7830 C   0  0  0  0  0  0  0  0  0  0  0  0
   23.2910   40.4280   21.3020 N   0  0  0  0  0  0  0  0  0  0  0  0
   24.1280   41.5420   20.8650 C   0  0  0  0  0  0  0  0  0  0  0  0
   25.4080   41.6260   21.7000 C   0  0  0  0  0  0  0  0  0  0  0  0
   26.1060   40.3690   21.7050 O   0  0  0  0  0  0  0  0  0  0  0  0
   25.2810   39.3370   22.2690 C   0  0  0  0  0  0  0  0  0  0  0  0
   23.9910   39.1530   21.4630 C   0  0  0  0  0  0  0  0  0  0  0  0
  1  2  2  0
  2  3  1  0
  4  3  1  1
  4  5  1  0
  5  6  1  0
  6  7  1  0
  7  8  1  6
  8  9  3  0
  9 10  1  0
 10 11  2  0
 11 12  1  0
 12 13  2  0
 13 14  1  0
 14 15  2  0
 15 16  1  0
 16 17  1  0
 17 18  1  0
 18 19  2  0
 19 20  1  0
 20 21  2  0
 21 22  1  0
 22 23  1  0
 23 24  1  0
 24 25  2  0
 25 26  1  0
 26 27  2  0
 27 28  1  0
 28 29  1  0
 28 30  2  0
 21 31  1  0
 31 32  2  0
 16 33  2  0
 33 34  1  0
  7 35  1  0
  2 36  1  0
 36 37  1  0
 37 38  1  0
 38 39  1  0
 39 40  1  0
 40 41  1  0
 35  4  1  0
 41 36  1  0
 34 10  1  0
 33 12  1  0
 32 18  1  0
 30 24  1  0
M  END
$$$$
