BGDYVTQSRKFIJW-UHFFFAOYSA-N
     RDKit          3D

 36 40  0  0  0  0  0  0  0  0999 V2000
  130.7570  114.7830   43.6260 C   0  0  0  0  0  0  0  0  0  0  0  0
  131.3720  114.5960   42.3580 O   0  0  0  0  0  0  0  0  0  0  0  0
  132.7220  114.8010   42.2860 C   0  0  0  0  0  0  0  0  0  0  0  0
  133.7070  113.9880   42.8510 C   0  0  0  0  0  0  0  0  0  0  0  0
  135.0640  114.3100   42.7050 C   0  0  0  0  0  0  0  0  0  0  0  0
  135.4420  115.4490   41.9920 C   0  0  0  0  0  0  0  0  0  0  0  0
  136.8310  115.8300   41.8160 C   0  0  0  0  0  0  0  0  0  0  0  0
  137.1620  116.9360   41.1280 C   0  0  0  0  0  0  0  0  0  0  0  0
  138.6240  117.2390   41.0150 C   0  0  0  0  0  0  0  0  0  0  0  0
  139.0740  117.8930   40.0760 O   0  0  0  0  0  0  0  0  0  0  0  0
  139.4230  116.7390   42.0100 N   0  0  0  0  0  0  0  0  0  0  0  0
  140.8590  116.9320   42.0290 C   0  0  0  0  0  0  0  0  0  0  0  0
  141.5980  115.6380   41.6940 C   0  0  0  0  0  0  0  0  0  0  0  0
  140.7270  114.4110   41.9630 C   0  0  0  0  0  0  0  0  0  0  0  0
  140.5740  113.5580   40.7000 C   0  0  0  0  0  0  0  0  0  0  0  0
  139.4190  114.0210   39.8110 C   0  0  0  0  0  0  0  0  0  0  0  0
  138.9970  112.9400   38.9300 N   0  0  0  0  0  0  0  0  0  0  0  0
  137.7580  112.3410   39.2250 C   0  0  0  0  0  0  0  0  0  0  0  0
  137.7260  111.0620   39.8120 C   0  0  0  0  0  0  0  0  0  0  0  0
  136.4810  110.5310   40.1510 C   0  0  0  0  0  0  0  0  0  0  0  0
  135.3130  111.1760   39.9200 N   0  0  0  0  0  0  0  0  0  0  0  0
  135.3440  112.3880   39.3520 C   0  0  0  0  0  0  0  0  0  0  0  0
  134.1340  113.0340   39.1280 C   0  0  0  0  0  0  0  0  0  0  0  0
  134.0690  114.3040   38.5500 C   0  0  0  0  0  0  0  0  0  0  0  0
  135.2400  114.9510   38.1850 C   0  0  0  0  0  0  0  0  0  0  0  0
  136.4660  114.3210   38.3980 C   0  0  0  0  0  0  0  0  0  0  0  0
  136.5410  113.0310   38.9800 C   0  0  0  0  0  0  0  0  0  0  0  0
  136.3390  109.1520   40.7440 C   0  0  0  0  0  0  0  0  0  0  0  0
  137.6350  108.6070   41.3360 C   0  0  0  0  0  0  0  0  0  0  0  0
  138.7790  108.8070   40.3520 C   0  0  0  0  0  0  0  0  0  0  0  0
  138.9990  110.2960   40.0910 C   0  0  0  0  0  0  0  0  0  0  0  0
  136.1110  117.7920   40.5300 C   0  0  0  0  0  0  0  0  0  0  0  0
  136.3830  118.8090   39.8950 O   0  0  0  0  0  0  0  0  0  0  0  0
  134.7880  117.4050   40.7130 O   0  0  0  0  0  0  0  0  0  0  0  0
  134.4510  116.2480   41.4370 C   0  0  0  0  0  0  0  0  0  0  0  0
  133.1010  115.9400   41.5730 C   0  0  0  0  0  0  0  0  0  0  0  0
  1  2  1  0
  2  3  1  0
  3  4  2  0
  4  5  1  0
  5  6  2  0
  6  7  1  0
  7  8  2  0
  8  9  1  0
  9 10  2  0
  9 11  1  0
 11 12  1  0
 12 13  1  0
 13 14  1  0
 14 15  1  0
 15 16  1  0
 16 17  1  0
 17 18  1  0
 18 19  2  0
 19 20  1  0
 20 21  2  0
 21 22  1  0
 22 23  2  0
 23 24  1  0
 24 25  2  0
 25 26  1  0
 26 27  2  0
 20 28  1  0
 28 29  1  0
 29 30  1  0
 30 31  1  0
  8 32  1  0
 32 33  2  0
 32 34  1  0
 34 35  1  0
 35 36  2  0
 36  3  1  0
 35  6  1  0
 27 18  1  0
 31 19  1  0
 27 22  1  0
M  END
$$$$
