KVNPGZVFMJXRBG-SFHVURJKSA-N
     RDKit          3D

 31 35  0  0  0  0  0  0  0  0999 V2000
  -11.7540   11.7810   19.5030 C   0  0  0  0  0  0  0  0  0  0  0  0
  -13.0620   12.3720   19.6480 N   0  0  0  0  0  0  0  0  0  0  0  0
  -14.2190   11.7360   19.9780 C   0  0  0  0  0  0  0  0  0  0  0  0
  -15.1820   12.7150   20.0180 C   0  0  0  0  0  0  0  0  0  0  0  0
  -14.5110   13.9280   19.6990 C   0  0  0  0  0  0  0  0  0  0  0  0
  -15.0660   15.2760   19.5910 C   0  0  0  0  0  0  0  0  0  0  0  0
  -15.9810   15.5360   18.5610 C   0  0  0  0  0  0  0  0  0  0  0  0
  -16.5620   16.8020   18.4100 C   0  0  0  0  0  0  0  0  0  0  0  0
  -16.2380   17.8550   19.2760 C   0  0  0  0  0  0  0  0  0  0  0  0
  -16.8320   19.1160   19.0630 N   0  0  0  0  0  0  0  0  0  0  0  0
  -18.0090   19.6400   19.4840 C   0  0  0  0  0  0  0  0  0  0  0  0
  -19.1490   18.9910   19.7600 N   0  0  0  0  0  0  0  0  0  0  0  0
  -20.0330   19.9470   20.1290 N   0  0  0  0  0  0  0  0  0  0  0  0
  -21.4050   19.5460   20.4670 C   0  0  1  0  0  0  0  0  0  0  0  0
  -21.7630   20.0380   21.8820 C   0  0  0  0  0  0  0  0  0  0  0  0
  -22.0190   18.9110   22.7840 C   0  0  0  0  0  0  0  0  0  0  0  0
  -22.2040   18.0100   23.4910 N   0  0  0  0  0  0  0  0  0  0  0  0
  -22.3640   20.0830   19.4260 C   0  0  0  0  0  0  0  0  0  0  0  0
  -23.6480   19.3610   19.0910 C   0  0  0  0  0  0  0  0  0  0  0  0
  -23.6960   20.6680   19.8290 C   0  0  0  0  0  0  0  0  0  0  0  0
  -19.4790   21.1910   20.1070 C   0  0  0  0  0  0  0  0  0  0  0  0
  -20.0720   22.4280   20.4330 C   0  0  0  0  0  0  0  0  0  0  0  0
  -19.2560   23.4940   20.3100 C   0  0  0  0  0  0  0  0  0  0  0  0
  -17.9350   23.3750   19.8970 N   0  0  0  0  0  0  0  0  0  0  0  0
  -17.3100   22.1720   19.5690 C   0  0  0  0  0  0  0  0  0  0  0  0
  -16.1410   22.1040   19.2060 O   0  0  0  0  0  0  0  0  0  0  0  0
  -18.1750   21.0220   19.6980 C   0  0  0  0  0  0  0  0  0  0  0  0
  -15.3080   17.5970   20.2900 C   0  0  0  0  0  0  0  0  0  0  0  0
  -14.7300   16.3280   20.4540 C   0  0  0  0  0  0  0  0  0  0  0  0
  -13.5780   16.1660   21.7370 Cl  0  0  0  0  0  0  0  0  0  0  0  0
  -13.2140   13.6900   19.4410 N   0  0  0  0  0  0  0  0  0  0  0  0
  1  2  1  0
  2  3  1  0
  3  4  2  0
  4  5  1  0
  5  6  1  0
  6  7  2  0
  7  8  1  0
  8  9  2  0
  9 10  1  0
 10 11  1  0
 11 12  2  0
 12 13  1  0
 13 14  1  0
 14 15  1  1
 15 16  1  0
 16 17  3  0
 14 18  1  0
 18 19  1  0
 19 20  1  0
 13 21  1  0
 21 22  1  0
 22 23  2  0
 23 24  1  0
 24 25  1  0
 25 26  2  0
 25 27  1  0
  9 28  1  0
 28 29  2  0
 29 30  1  0
  5 31  2  0
 31  2  1  0
 29  6  1  0
 27 11  1  0
 20 18  1  0
 27 21  2  0
M  END
$$$$
