JDOVRLNHIYWZKZ-UHFFFAOYSA-N
     RDKit          3D

 22 24  0  0  0  0  0  0  0  0999 V2000
   56.5770    2.7720  -45.6410 C   0  0  0  0  0  0  0  0  0  0  0  0
   56.2500    1.4220  -45.3400 O   0  0  0  0  0  0  0  0  0  0  0  0
   54.9150    1.0900  -45.3290 C   0  0  0  0  0  0  0  0  0  0  0  0
   54.1470    0.8180  -46.4650 C   0  0  0  0  0  0  0  0  0  0  0  0
   52.7940    0.4720  -46.3420 C   0  0  0  0  0  0  0  0  0  0  0  0
   52.0060    0.1780  -47.5340 C   0  0  0  0  0  0  0  0  0  0  0  0
   52.4210    0.6110  -48.7380 N   0  0  0  0  0  0  0  0  0  0  0  0
   51.4440    0.2180  -49.5840 N   0  0  0  0  0  0  0  0  0  0  0  0
   51.5310    0.5410  -51.0040 C   0  0  0  0  0  0  0  0  0  0  0  0
   50.4240   -0.1470  -51.8010 C   0  0  0  0  0  0  0  0  0  0  0  0
   52.9120    0.2060  -51.5670 C   0  0  0  0  0  0  0  0  0  0  0  0
   50.4410   -0.4820  -48.9710 C   0  0  0  0  0  0  0  0  0  0  0  0
   49.3470   -1.0060  -49.5510 N   0  0  0  0  0  0  0  0  0  0  0  0
   48.5760   -1.6420  -48.6550 C   0  0  0  0  0  0  0  0  0  0  0  0
   48.7970   -1.7980  -47.3360 N   0  0  0  0  0  0  0  0  0  0  0  0
   49.9140   -1.2660  -46.7970 C   0  0  0  0  0  0  0  0  0  0  0  0
   50.1170   -1.4930  -45.4570 N   0  0  0  0  0  0  0  0  0  0  0  0
   50.7840   -0.5500  -47.6310 C   0  0  0  0  0  0  0  0  0  0  0  0
   52.2070    0.4230  -45.0720 C   0  0  0  0  0  0  0  0  0  0  0  0
   52.9700    0.6920  -43.9360 C   0  0  0  0  0  0  0  0  0  0  0  0
   54.3180    1.0410  -44.0510 C   0  0  0  0  0  0  0  0  0  0  0  0
   55.0800    1.2440  -42.9040 N   0  0  0  0  0  0  0  0  0  0  0  0
  1  2  1  0
  2  3  1  0
  3  4  2  0
  4  5  1  0
  5  6  1  0
  6  7  2  0
  7  8  1  0
  8  9  1  0
  9 10  1  0
  9 11  1  0
  8 12  1  0
 12 13  2  0
 13 14  1  0
 14 15  2  0
 15 16  1  0
 16 17  1  0
 16 18  2  0
  5 19  2  0
 19 20  1  0
 20 21  2  0
 21 22  1  0
 21  3  1  0
 18  6  1  0
 18 12  1  0
M  END
$$$$
