VFMSUHKKMMGCJU-UHFFFAOYSA-N
     RDKit          3D

 33 36  0  0  0  0  0  0  0  0999 V2000
   43.2540  -44.5490  107.6560 C   0  0  0  0  0  0  0  0  0  0  0  0
   44.3900  -43.5930  108.0470 C   0  0  0  0  0  0  0  0  0  0  0  0
   45.5500  -44.4230  108.6110 C   0  0  0  0  0  0  0  0  0  0  0  0
   44.7600  -42.5310  106.9290 C   0  0  0  0  0  0  0  0  0  0  0  0
   45.7430  -41.4200  107.4230 C   0  0  0  0  0  0  0  0  0  0  0  0
   45.8640  -41.1900  108.9360 C   0  0  0  0  0  0  0  0  0  0  0  0
   45.5190  -39.8460  109.2960 O   0  0  0  0  0  0  0  0  0  0  0  0
   44.4240  -39.2610  108.7200 C   0  0  0  0  0  0  0  0  0  0  0  0
   43.0990  -39.5510  109.0690 C   0  0  0  0  0  0  0  0  0  0  0  0
   42.0200  -38.9680  108.3770 C   0  0  0  0  0  0  0  0  0  0  0  0
   40.6000  -39.3680  108.7130 C   0  0  0  0  0  0  0  0  0  0  0  0
   39.8760  -38.3050  109.5040 C   0  0  0  0  0  0  0  0  0  0  0  0
   39.3930  -37.2740  109.0620 O   0  0  0  0  0  0  0  0  0  0  0  0
   39.7940  -38.6130  110.8120 O   0  0  0  0  0  0  0  0  0  0  0  0
   42.2820  -38.0280  107.3760 C   0  0  0  0  0  0  0  0  0  0  0  0
   43.5990  -37.6900  107.0600 C   0  0  0  0  0  0  0  0  0  0  0  0
   44.6640  -38.3060  107.7220 C   0  0  0  0  0  0  0  0  0  0  0  0
   46.2730  -37.8710  107.2510 Cl  0  0  0  0  0  0  0  0  0  0  0  0
   43.4560  -41.9340  106.3350 C   0  0  0  0  0  0  0  0  0  0  0  0
   43.6600  -41.1280  105.0550 C   0  0  0  0  0  0  0  0  0  0  0  0
   44.3620  -41.9170  104.0500 N   0  0  0  0  0  0  0  0  0  0  0  0
   44.1220  -41.6380  102.7330 C   0  0  0  0  0  0  0  0  0  0  0  0
   44.6820  -42.3000  101.7390 N   0  0  0  0  0  0  0  0  0  0  0  0
   44.3450  -41.7440  100.5140 C   0  0  0  0  0  0  0  0  0  0  0  0
   44.8090  -42.1780   99.2530 C   0  0  0  0  0  0  0  0  0  0  0  0
   44.3830  -41.5250   98.0940 C   0  0  0  0  0  0  0  0  0  0  0  0
   43.5090  -40.4530   98.1820 C   0  0  0  0  0  0  0  0  0  0  0  0
   43.0130  -39.6520   96.7420 Cl  0  0  0  0  0  0  0  0  0  0  0  0
   43.0320  -40.0020   99.4170 C   0  0  0  0  0  0  0  0  0  0  0  0
   43.4700  -40.6680  100.5720 C   0  0  0  0  0  0  0  0  0  0  0  0
   43.0840  -40.3540  102.2170 S   0  0  0  0  0  0  0  0  0  0  0  0
   45.6300  -42.5110  104.4640 C   0  0  0  0  0  0  0  0  0  0  0  0
   45.4630  -43.3070  105.7620 C   0  0  0  0  0  0  0  0  0  0  0  0
  1  2  1  0
  2  3  1  0
  2  4  1  0
  4  5  1  0
  5  6  1  0
  6  7  1  0
  7  8  1  0
  8  9  2  0
  9 10  1  0
 10 11  1  0
 11 12  1  0
 12 13  2  0
 12 14  1  0
 10 15  2  0
 15 16  1  0
 16 17  2  0
 17 18  1  0
  4 19  1  0
 19 20  1  0
 20 21  1  0
 21 22  1  0
 22 23  2  0
 23 24  1  0
 24 25  2  0
 25 26  1  0
 26 27  2  0
 27 28  1  0
 27 29  1  0
 29 30  2  0
 30 31  1  0
 21 32  1  0
 32 33  1  0
 33  4  1  0
 17  8  1  0
 31 22  1  0
 30 24  1  0
M  END
$$$$
