KTUFNOKKBVMGRW-UHFFFAOYSA-N
     RDKit          3D

 37 41  0  0  0  0  0  0  0  0999 V2000
   14.1800   33.7680   13.4990 C   0  0  0  0  0  0  0  0  0  0  0  0
   15.6310   34.0520   13.7850 C   0  0  0  0  0  0  0  0  0  0  0  0
   15.9460   34.8310   14.9110 C   0  0  0  0  0  0  0  0  0  0  0  0
   17.2710   35.1240   15.2360 C   0  0  0  0  0  0  0  0  0  0  0  0
   18.3040   34.6440   14.4400 C   0  0  0  0  0  0  0  0  0  0  0  0
   19.6710   34.8940   14.6840 N   0  0  0  0  0  0  0  0  0  0  0  0
   20.2450   36.0630   15.1500 C   0  0  0  0  0  0  0  0  0  0  0  0
   19.6640   37.0780   15.5130 O   0  0  0  0  0  0  0  0  0  0  0  0
   21.7320   36.0300   15.2360 C   0  0  0  0  0  0  0  0  0  0  0  0
   22.4730   36.7540   14.2970 C   0  0  0  0  0  0  0  0  0  0  0  0
   23.8700   36.7450   14.3470 C   0  0  0  0  0  0  0  0  0  0  0  0
   24.5410   36.0050   15.3320 C   0  0  0  0  0  0  0  0  0  0  0  0
   26.0570   35.9710   15.3700 C   0  0  0  0  0  0  0  0  0  0  0  0
   26.6600   35.6050   14.0790 N   0  0  0  0  0  0  0  0  0  0  0  0
   28.1360   35.6740   14.1420 C   0  0  0  0  0  0  0  0  0  0  0  0
   28.8110   34.5320   14.9370 C   0  0  0  0  0  0  0  0  0  0  0  0
   28.4070   33.2020   14.4470 N   0  0  0  0  0  0  0  0  0  0  0  0
   29.0070   32.1400   15.2470 C   0  0  0  0  0  0  0  0  0  0  0  0
   26.9400   33.0860   14.4210 C   0  0  0  0  0  0  0  0  0  0  0  0
   26.2760   34.2450   13.6360 C   0  0  0  0  0  0  0  0  0  0  0  0
   23.7880   35.2610   16.2540 C   0  0  0  0  0  0  0  0  0  0  0  0
   22.3920   35.2710   16.2100 C   0  0  0  0  0  0  0  0  0  0  0  0
   17.9890   33.8690   13.3120 C   0  0  0  0  0  0  0  0  0  0  0  0
   16.6650   33.5600   12.9570 C   0  0  0  0  0  0  0  0  0  0  0  0
   16.3530   32.7670   11.8430 N   0  0  0  0  0  0  0  0  0  0  0  0
   16.2860   32.9920   10.4700 C   0  0  0  0  0  0  0  0  0  0  0  0
   16.4250   34.2120    9.9360 N   0  0  0  0  0  0  0  0  0  0  0  0
   16.3600   34.3100    8.5990 C   0  0  0  0  0  0  0  0  0  0  0  0
   16.1560   33.2380    7.7680 C   0  0  0  0  0  0  0  0  0  0  0  0
   16.0170   32.0120    8.3850 C   0  0  0  0  0  0  0  0  0  0  0  0
   15.8090   30.7560    7.6440 C   0  0  0  0  0  0  0  0  0  0  0  0
   16.8880   29.9790    7.1930 C   0  0  0  0  0  0  0  0  0  0  0  0
   16.6720   28.7980    6.4820 C   0  0  0  0  0  0  0  0  0  0  0  0
   15.3680   28.4120    6.2350 C   0  0  0  0  0  0  0  0  0  0  0  0
   14.2930   29.1130    6.6500 N   0  0  0  0  0  0  0  0  0  0  0  0
   14.5410   30.2530    7.3430 C   0  0  0  0  0  0  0  0  0  0  0  0
   16.0890   31.8880    9.7310 N   0  0  0  0  0  0  0  0  0  0  0  0
  1  2  1  0
  2  3  2  0
  3  4  1  0
  4  5  2  0
  5  6  1  0
  6  7  1  0
  7  8  2  0
  7  9  1  0
  9 10  2  0
 10 11  1  0
 11 12  2  0
 12 13  1  0
 13 14  1  0
 14 15  1  0
 15 16  1  0
 16 17  1  0
 17 18  1  0
 17 19  1  0
 19 20  1  0
 12 21  1  0
 21 22  2  0
  5 23  1  0
 23 24  2  0
 24 25  1  0
 25 26  1  0
 26 27  2  0
 27 28  1  0
 28 29  2  0
 29 30  1  0
 30 31  1  0
 31 32  2  0
 32 33  1  0
 33 34  2  0
 34 35  1  0
 35 36  2  0
 30 37  2  0
 24  2  1  0
 37 26  1  0
 22  9  1  0
 36 31  1  0
 20 14  1  0
M  END
$$$$
