KTUFNOKKBVMGRW-UHFFFAOYSA-N
     RDKit          3D

 37 41  0  0  0  0  0  0  0  0999 V2000
   14.4760   33.8790   13.8970 C   0  0  0  0  0  0  0  0  0  0  0  0
   15.9640   34.1100   13.9420 C   0  0  0  0  0  0  0  0  0  0  0  0
   16.4940   34.8210   15.0320 C   0  0  0  0  0  0  0  0  0  0  0  0
   17.8640   35.0620   15.1370 C   0  0  0  0  0  0  0  0  0  0  0  0
   18.7290   34.5970   14.1530 C   0  0  0  0  0  0  0  0  0  0  0  0
   20.1240   34.7990   14.1690 N   0  0  0  0  0  0  0  0  0  0  0  0
   21.1110   33.8520   14.3750 C   0  0  0  0  0  0  0  0  0  0  0  0
   20.9620   32.6440   14.5060 O   0  0  0  0  0  0  0  0  0  0  0  0
   22.4970   34.4000   14.4010 C   0  0  0  0  0  0  0  0  0  0  0  0
   22.6820   35.7370   14.7660 C   0  0  0  0  0  0  0  0  0  0  0  0
   23.9680   36.2850   14.8000 C   0  0  0  0  0  0  0  0  0  0  0  0
   25.0820   35.5020   14.4610 C   0  0  0  0  0  0  0  0  0  0  0  0
   26.4750   36.1020   14.4690 C   0  0  0  0  0  0  0  0  0  0  0  0
   27.4350   35.3250   15.2670 N   0  0  0  0  0  0  0  0  0  0  0  0
   28.8230   35.7740   15.0180 C   0  0  0  0  0  0  0  0  0  0  0  0
   29.1920   37.1370   15.6480 C   0  0  0  0  0  0  0  0  0  0  0  0
   28.9240   37.1680   17.0970 N   0  0  0  0  0  0  0  0  0  0  0  0
   29.2230   38.4790   17.6620 C   0  0  0  0  0  0  0  0  0  0  0  0
   27.5330   36.7730   17.3720 C   0  0  0  0  0  0  0  0  0  0  0  0
   27.1720   35.4140   16.7210 C   0  0  0  0  0  0  0  0  0  0  0  0
   24.8830   34.1690   14.0710 C   0  0  0  0  0  0  0  0  0  0  0  0
   23.6010   33.6170   14.0400 C   0  0  0  0  0  0  0  0  0  0  0  0
   18.1990   33.8910   13.0610 C   0  0  0  0  0  0  0  0  0  0  0  0
   16.8230   33.6350   12.9260 C   0  0  0  0  0  0  0  0  0  0  0  0
   16.2980   32.9090   11.8460 N   0  0  0  0  0  0  0  0  0  0  0  0
   16.2280   33.1150   10.4700 C   0  0  0  0  0  0  0  0  0  0  0  0
   16.2430   34.3390    9.9280 N   0  0  0  0  0  0  0  0  0  0  0  0
   16.1880   34.4200    8.5880 C   0  0  0  0  0  0  0  0  0  0  0  0
   16.1120   33.3260    7.7640 C   0  0  0  0  0  0  0  0  0  0  0  0
   16.0970   32.0970    8.3900 C   0  0  0  0  0  0  0  0  0  0  0  0
   16.0350   30.8200    7.6580 C   0  0  0  0  0  0  0  0  0  0  0  0
   14.8110   30.2450    7.2820 C   0  0  0  0  0  0  0  0  0  0  0  0
   14.7700   29.0290    6.6000 C   0  0  0  0  0  0  0  0  0  0  0  0
   15.9680   28.4070    6.3010 C   0  0  0  0  0  0  0  0  0  0  0  0
   17.1730   28.9150    6.6280 N   0  0  0  0  0  0  0  0  0  0  0  0
   17.1740   30.1020    7.2860 C   0  0  0  0  0  0  0  0  0  0  0  0
   16.1620   31.9910    9.7390 N   0  0  0  0  0  0  0  0  0  0  0  0
  1  2  1  0
  2  3  2  0
  3  4  1  0
  4  5  2  0
  5  6  1  0
  6  7  1  0
  7  8  2  0
  7  9  1  0
  9 10  2  0
 10 11  1  0
 11 12  2  0
 12 13  1  0
 13 14  1  0
 14 15  1  0
 15 16  1  0
 16 17  1  0
 17 18  1  0
 17 19  1  0
 19 20  1  0
 12 21  1  0
 21 22  2  0
  5 23  1  0
 23 24  2  0
 24 25  1  0
 25 26  1  0
 26 27  2  0
 27 28  1  0
 28 29  2  0
 29 30  1  0
 30 31  1  0
 31 32  2  0
 32 33  1  0
 33 34  2  0
 34 35  1  0
 35 36  2  0
 30 37  2  0
 24  2  1  0
 37 26  1  0
 22  9  1  0
 36 31  1  0
 20 14  1  0
M  END
$$$$
