NPCOVXRHNOWSPC-UHFFFAOYSA-N
     RDKit          3D

 36 39  0  0  0  0  0  0  0  0999 V2000
    9.0440   10.9800   -4.9350 C   0  0  0  0  0  0  0  0  0  0  0  0
    7.7740   10.6530   -5.7120 C   0  0  0  0  0  0  0  0  0  0  0  0
    6.8880    9.5940   -5.0370 C   0  0  2  0  0  0  0  0  0  0  0  0
    6.1570    8.9230   -6.0650 O   0  0  0  0  0  0  0  0  0  0  0  0
    5.9650    7.5790   -5.8980 C   0  0  0  0  0  0  0  0  0  0  0  0
    4.9460    7.0090   -5.1400 C   0  0  0  0  0  0  0  0  0  0  0  0
    4.8460    5.6200   -5.0390 C   0  0  0  0  0  0  0  0  0  0  0  0
    5.7560    4.8010   -5.7080 C   0  0  0  0  0  0  0  0  0  0  0  0
    6.7660    5.3590   -6.5040 C   0  0  0  0  0  0  0  0  0  0  0  0
    7.7550    4.4780   -7.2350 C   0  0  0  0  0  0  0  0  0  0  0  0
    9.0910    4.5870   -6.6670 N   0  0  0  0  0  0  0  0  0  0  0  0
    9.9820    5.6350   -7.1530 C   0  0  0  0  0  0  0  0  0  0  0  0
   10.1170    5.6190   -8.6790 C   0  0  0  0  0  0  0  0  0  0  0  0
   10.4190    6.9900   -9.2760 C   0  0  0  0  0  0  0  0  0  0  0  0
   10.6080    6.8510  -10.6840 O   0  0  0  0  0  0  0  0  0  0  0  0
   10.6280    8.0000  -11.4320 C   0  0  0  0  0  0  0  0  0  0  0  0
   10.0250    9.2050  -11.0610 C   0  0  0  0  0  0  0  0  0  0  0  0
   10.1020   10.3250  -11.8950 C   0  0  0  0  0  0  0  0  0  0  0  0
   10.7890   10.2600  -13.1090 C   0  0  0  0  0  0  0  0  0  0  0  0
   10.8470   11.4530  -14.0160 C   0  0  0  0  0  0  0  0  0  0  0  0
   11.3730    9.0470  -13.4920 C   0  0  0  0  0  0  0  0  0  0  0  0
   11.3010    7.9150  -12.6630 C   0  0  0  0  0  0  0  0  0  0  0  0
   11.9470    6.6300  -13.1000 C   0  0  0  0  0  0  0  0  0  0  0  0
    9.4790    3.8310   -5.6150 C   0  0  0  0  0  0  0  0  0  0  0  0
    9.0150    3.8530   -4.3810 N   0  0  0  0  0  0  0  0  0  0  0  0
    9.7410    2.8920   -3.7320 C   0  0  0  0  0  0  0  0  0  0  0  0
    9.6930    2.4310   -2.4110 C   0  0  0  0  0  0  0  0  0  0  0  0
   10.5810    1.4120   -2.0340 C   0  0  0  0  0  0  0  0  0  0  0  0
   11.4940    0.8730   -2.9480 C   0  0  0  0  0  0  0  0  0  0  0  0
   11.5570    1.3260   -4.2710 C   0  0  0  0  0  0  0  0  0  0  0  0
   10.6550    2.3300   -4.6030 C   0  0  0  0  0  0  0  0  0  0  0  0
   10.4970    2.9330   -5.8140 O   0  0  0  0  0  0  0  0  0  0  0  0
    6.8540    6.7570   -6.5950 C   0  0  0  0  0  0  0  0  0  0  0  0
    5.9720   10.2390   -3.9970 C   0  0  0  0  0  0  0  0  0  0  0  0
    6.2130   10.4620   -2.8220 O   0  0  0  0  0  0  0  0  0  0  0  0
    4.7810   10.6190   -4.5130 O   0  0  0  0  0  0  0  0  0  0  0  0
  1  2  1  0
  3  2  1  6
  3  4  1  0
  4  5  1  0
  5  6  2  0
  6  7  1  0
  7  8  2  0
  8  9  1  0
  9 10  1  0
 10 11  1  0
 11 12  1  0
 12 13  1  0
 13 14  1  0
 14 15  1  0
 15 16  1  0
 16 17  2  0
 17 18  1  0
 18 19  2  0
 19 20  1  0
 19 21  1  0
 21 22  2  0
 22 23  1  0
 11 24  1  0
 24 25  2  0
 25 26  1  0
 26 27  2  0
 27 28  1  0
 28 29  2  0
 29 30  1  0
 30 31  2  0
 31 32  1  0
  9 33  2  0
  3 34  1  0
 34 35  2  0
 34 36  1  0
 33  5  1  0
 22 16  1  0
 32 24  1  0
 31 26  1  0
M  END
$$$$
