DBXQFQRUXGQRKN-UHFFFAOYSA-N
     RDKit          3D

 37 39  0  0  0  0  0  0  0  0999 V2000
   37.6330  -38.4880  103.4330 C   0  0  0  0  0  0  0  0  0  0  0  0
   38.5060  -39.2720  104.4000 C   0  0  0  0  0  0  0  0  0  0  0  0
   39.9820  -39.2070  104.0010 C   0  0  0  0  0  0  0  0  0  0  0  0
   40.8200  -40.2960  104.6750 C   0  0  0  0  0  0  0  0  0  0  0  0
   42.2800  -39.9510  104.6500 N   0  0  0  0  0  0  0  0  0  0  0  0
   43.0540  -40.6640  103.6450 C   0  0  0  0  0  0  0  0  0  0  0  0
   43.8040  -41.7930  104.0080 C   0  0  0  0  0  0  0  0  0  0  0  0
   44.5230  -42.5010  103.0520 C   0  0  0  0  0  0  0  0  0  0  0  0
   44.4890  -42.0940  101.7220 C   0  0  0  0  0  0  0  0  0  0  0  0
   43.7460  -40.9680  101.3250 C   0  0  0  0  0  0  0  0  0  0  0  0
   43.7380  -40.6090   99.9000 C   0  0  0  0  0  0  0  0  0  0  0  0
   44.9180  -40.2030   99.2570 C   0  0  0  0  0  0  0  0  0  0  0  0
   44.9090  -39.8450   97.9080 C   0  0  0  0  0  0  0  0  0  0  0  0
   43.7160  -39.8890   97.1890 C   0  0  0  0  0  0  0  0  0  0  0  0
   43.7020  -39.4440   95.5280 Cl  0  0  0  0  0  0  0  0  0  0  0  0
   42.5340  -40.2850   97.8100 C   0  0  0  0  0  0  0  0  0  0  0  0
   42.5450  -40.6410   99.1610 C   0  0  0  0  0  0  0  0  0  0  0  0
   43.0340  -40.2270  102.3020 C   0  0  0  0  0  0  0  0  0  0  0  0
   42.2270  -39.0190  101.8970 C   0  0  0  0  0  0  0  0  0  0  0  0
   43.0440  -39.9750  106.2050 S   0  0  0  0  0  0  0  0  0  0  0  0
   43.1220  -41.3600  106.6210 O   0  0  0  0  0  0  0  0  0  0  0  0
   44.2330  -39.1470  106.1600 O   0  0  0  0  0  0  0  0  0  0  0  0
   41.8540  -39.0840  107.2210 C   0  0  0  0  0  0  0  0  0  0  0  0
   40.6490  -39.7680  107.4500 C   0  0  0  0  0  0  0  0  0  0  0  0
   39.6550  -39.2030  108.2370 C   0  0  0  0  0  0  0  0  0  0  0  0
   39.8480  -37.9380  108.7910 C   0  0  0  0  0  0  0  0  0  0  0  0
   38.8820  -37.3930  109.5990 O   0  0  0  0  0  0  0  0  0  0  0  0
   37.5640  -37.9040  109.3510 C   0  0  1  0  0  0  0  0  0  0  0  0
   36.8830  -38.1210  110.7100 C   0  0  0  0  0  0  0  0  0  0  0  0
   35.8490  -39.2380  110.6690 C   0  0  0  0  0  0  0  0  0  0  0  0
   36.7290  -36.9180  108.5310 C   0  0  0  0  0  0  0  0  0  0  0  0
   36.3090  -35.8240  108.8720 O   0  0  0  0  0  0  0  0  0  0  0  0
   36.4660  -37.3730  107.2860 O   0  0  0  0  0  0  0  0  0  0  0  0
   41.0610  -37.2450  108.6100 C   0  0  0  0  0  0  0  0  0  0  0  0
   41.2640  -35.9140  109.2960 C   0  0  0  0  0  0  0  0  0  0  0  0
   42.0690  -37.7980  107.7680 C   0  0  0  0  0  0  0  0  0  0  0  0
   43.3270  -37.0180  107.4780 C   0  0  0  0  0  0  0  0  0  0  0  0
  1  2  1  0
  2  3  1  0
  3  4  1  0
  4  5  1  0
  5  6  1  0
  6  7  2  0
  7  8  1  0
  8  9  2  0
  9 10  1  0
 10 11  1  0
 11 12  2  0
 12 13  1  0
 13 14  2  0
 14 15  1  0
 14 16  1  0
 16 17  2  0
 10 18  2  0
 18 19  1  0
  5 20  1  0
 20 21  2  0
 20 22  2  0
 20 23  1  0
 23 24  2  0
 24 25  1  0
 25 26  2  0
 26 27  1  0
 27 28  1  0
 28 29  1  1
 29 30  1  0
 28 31  1  0
 31 32  2  0
 31 33  1  0
 26 34  1  0
 34 35  1  0
 34 36  2  0
 36 37  1  0
 18  6  1  0
 36 23  1  0
 17 11  1  0
M  END
$$$$
