BWQAEQBADOVIBT-UHFFFAOYSA-N
     RDKit          3D

 40 44  0  0  0  0  0  0  0  0999 V2000
   -7.5710   -8.4640  -32.2540 C   0  0  0  0  0  0  0  0  0  0  0  0
   -8.4850   -7.4230  -31.7560 C   0  0  0  0  0  0  0  0  0  0  0  0
   -8.2650   -6.1440  -32.1820 O   0  0  0  0  0  0  0  0  0  0  0  0
   -9.2400   -5.4050  -31.5630 C   0  0  0  0  0  0  0  0  0  0  0  0
   -9.2540   -3.9700  -31.8390 C   0  0  0  0  0  0  0  0  0  0  0  0
  -10.1190   -3.1340  -31.1220 C   0  0  0  0  0  0  0  0  0  0  0  0
  -10.1540   -1.7540  -31.3650 C   0  0  0  0  0  0  0  0  0  0  0  0
   -9.3230   -1.1700  -32.3330 C   0  0  0  0  0  0  0  0  0  0  0  0
   -9.3550    0.2790  -32.5870 C   0  0  0  0  0  0  0  0  0  0  0  0
   -8.2010    1.0670  -32.4330 C   0  0  0  0  0  0  0  0  0  0  0  0
   -8.2320    2.4440  -32.6720 C   0  0  0  0  0  0  0  0  0  0  0  0
   -9.4170    3.0560  -33.0700 C   0  0  0  0  0  0  0  0  0  0  0  0
  -10.5720    2.2950  -33.2290 C   0  0  0  0  0  0  0  0  0  0  0  0
  -10.5410    0.9180  -32.9890 C   0  0  0  0  0  0  0  0  0  0  0  0
   -8.4580   -2.0120  -33.0500 C   0  0  0  0  0  0  0  0  0  0  0  0
   -8.4240   -3.3910  -32.8070 C   0  0  0  0  0  0  0  0  0  0  0  0
  -10.0420   -6.1150  -30.7910 N   0  0  0  0  0  0  0  0  0  0  0  0
   -9.5700   -7.4050  -30.9040 C   0  0  0  0  0  0  0  0  0  0  0  0
  -10.2200   -8.5220  -30.1660 C   0  0  0  0  0  0  0  0  0  0  0  0
  -11.0590   -8.0340  -28.9870 C   0  0  0  0  0  0  0  0  0  0  0  0
  -10.9900   -9.0050  -27.9380 O   0  0  0  0  0  0  0  0  0  0  0  0
  -10.2960   -8.6580  -26.8110 C   0  0  0  0  0  0  0  0  0  0  0  0
   -8.9230   -8.7970  -26.6170 C   0  0  0  0  0  0  0  0  0  0  0  0
   -8.3400   -8.4030  -25.4080 C   0  0  0  0  0  0  0  0  0  0  0  0
   -9.1200   -7.8610  -24.3780 C   0  0  0  0  0  0  0  0  0  0  0  0
   -8.4840   -7.4400  -23.0680 C   0  0  0  0  0  0  0  0  0  0  0  0
   -8.1500   -8.5900  -22.0690 C   0  0  1  0  0  0  0  0  0  0  0  0
   -6.9590   -9.4190  -22.5830 C   0  0  0  0  0  0  0  0  0  0  0  0
   -7.8750   -7.9420  -20.8140 O   0  0  0  0  0  0  0  0  0  0  0  0
   -6.9110   -6.9810  -20.7160 C   0  0  0  0  0  0  0  0  0  0  0  0
   -5.6010   -7.4630  -20.6670 C   0  0  0  0  0  0  0  0  0  0  0  0
   -4.5210   -6.5830  -20.5860 C   0  0  0  0  0  0  0  0  0  0  0  0
   -4.7470   -5.2090  -20.5690 C   0  0  0  0  0  0  0  0  0  0  0  0
   -6.0510   -4.7220  -20.6430 C   0  0  0  0  0  0  0  0  0  0  0  0
   -7.1320   -5.6060  -20.7240 C   0  0  0  0  0  0  0  0  0  0  0  0
   -9.4410   -9.4270  -22.0180 C   0  0  0  0  0  0  0  0  0  0  0  0
  -10.5220   -9.0950  -21.5580 O   0  0  0  0  0  0  0  0  0  0  0  0
   -9.3220  -10.6460  -22.5940 O   0  0  0  0  0  0  0  0  0  0  0  0
  -10.4960   -7.7210  -24.5810 C   0  0  0  0  0  0  0  0  0  0  0  0
  -11.0760   -8.1130  -25.7900 C   0  0  0  0  0  0  0  0  0  0  0  0
  1  2  1  0
  2  3  1  0
  3  4  1  0
  4  5  1  0
  5  6  2  0
  6  7  1  0
  7  8  2  0
  8  9  1  0
  9 10  2  0
 10 11  1  0
 11 12  2  0
 12 13  1  0
 13 14  2  0
  8 15  1  0
 15 16  2  0
  4 17  2  0
 17 18  1  0
 18 19  1  0
 19 20  1  0
 20 21  1  0
 21 22  1  0
 22 23  2  0
 23 24  1  0
 24 25  2  0
 25 26  1  0
 26 27  1  0
 27 28  1  6
 27 29  1  0
 29 30  1  0
 30 31  2  0
 31 32  1  0
 32 33  2  0
 33 34  1  0
 34 35  2  0
 27 36  1  0
 36 37  2  0
 36 38  1  0
 25 39  1  0
 39 40  2  0
 18  2  2  0
 40 22  1  0
 16  5  1  0
 35 30  1  0
 14  9  1  0
M  END
$$$$
