LUTLDXKHISCIJB-UHFFFAOYSA-N
     RDKit          3D

 30 32  0  0  0  0  0  0  0  0999 V2000
    4.4920    3.9490   -0.5560 C   0  0  0  0  0  0  0  0  0  0  0  0
    5.6710    4.6030   -1.2620 C   0  0  0  0  0  0  0  0  0  0  0  0
    5.2790    5.3630   -2.5290 C   0  0  0  0  0  0  0  0  0  0  0  0
    5.1130    6.8850   -2.4000 C   0  0  0  0  0  0  0  0  0  0  0  0
    3.6950    7.4710   -2.2670 C   0  0  2  0  0  0  0  0  0  0  0  0
    3.0870    8.3690   -3.7540 S   0  0  0  0  0  0  0  0  0  0  0  0
    4.6290    8.8180   -4.5270 C   0  0  0  0  0  0  0  0  0  0  0  0
    5.3770    9.9140   -4.0890 C   0  0  0  0  0  0  0  0  0  0  0  0
    6.5910   10.2410   -4.7060 C   0  0  0  0  0  0  0  0  0  0  0  0
    7.0710    9.4670   -5.7620 C   0  0  0  0  0  0  0  0  0  0  0  0
    8.2350    9.6710   -6.4470 O   0  0  0  0  0  0  0  0  0  0  0  0
    8.8280   10.9650   -6.3530 C   0  0  0  0  0  0  0  0  0  0  0  0
   10.2160   10.9190   -6.9810 C   0  0  0  0  0  0  0  0  0  0  0  0
   10.1790   11.1990   -8.4830 C   0  0  0  0  0  0  0  0  0  0  0  0
   10.0880    9.9430   -9.1550 O   0  0  0  0  0  0  0  0  0  0  0  0
   10.3750    9.9200  -10.4970 C   0  0  0  0  0  0  0  0  0  0  0  0
   10.5220   11.0580  -11.2950 C   0  0  0  0  0  0  0  0  0  0  0  0
   10.8250   10.9370  -12.6500 C   0  0  0  0  0  0  0  0  0  0  0  0
   10.9940    9.6770  -13.2180 C   0  0  0  0  0  0  0  0  0  0  0  0
   10.8670    8.5220  -12.4360 C   0  0  0  0  0  0  0  0  0  0  0  0
   10.5370    8.6390  -11.0690 C   0  0  0  0  0  0  0  0  0  0  0  0
   10.4150    7.4070  -10.1970 C   0  0  0  0  0  0  0  0  0  0  0  0
   10.2470    6.1090  -10.9860 C   0  0  0  0  0  0  0  0  0  0  0  0
   11.2640    6.0380  -12.1160 C   0  0  0  0  0  0  0  0  0  0  0  0
   11.0300    7.1770  -13.1020 C   0  0  0  0  0  0  0  0  0  0  0  0
    6.3340    8.3580   -6.1840 C   0  0  0  0  0  0  0  0  0  0  0  0
    5.1220    8.0320   -5.5700 C   0  0  0  0  0  0  0  0  0  0  0  0
    3.5550    8.3490   -1.0280 C   0  0  0  0  0  0  0  0  0  0  0  0
    2.5410    8.7280   -0.4660 O   0  0  0  0  0  0  0  0  0  0  0  0
    4.7600    8.7150   -0.5280 O   0  0  0  0  0  0  0  0  0  0  0  0
  1  2  1  0
  2  3  1  0
  3  4  1  0
  5  4  1  6
  5  6  1  0
  6  7  1  0
  7  8  2  0
  8  9  1  0
  9 10  2  0
 10 11  1  0
 11 12  1  0
 12 13  1  0
 13 14  1  0
 14 15  1  0
 15 16  1  0
 16 17  2  0
 17 18  1  0
 18 19  2  0
 19 20  1  0
 20 21  2  0
 21 22  1  0
 22 23  1  0
 23 24  1  0
 24 25  1  0
 10 26  1  0
 26 27  2  0
  5 28  1  0
 28 29  2  0
 28 30  1  0
 27  7  1  0
 21 16  1  0
 25 20  1  0
M  END
$$$$
