OCMXVQWXVVAJMF-HNNXBMFYSA-N
     RDKit          3D

 26 30  0  0  0  0  0  0  0  0999 V2000
  -13.4530   16.1280   21.3330 C   0  0  0  0  0  0  0  0  0  0  0  0
  -12.4990   16.3020   20.2550 N   0  0  0  0  0  0  0  0  0  0  0  0
  -11.4810   15.3670   20.0830 C   0  0  0  0  0  0  0  0  0  0  0  0
  -10.1910   15.7910   20.2320 N   0  0  0  0  0  0  0  0  0  0  0  0
   -9.1720   14.9280   20.0520 C   0  0  0  0  0  0  0  0  0  0  0  0
   -9.2390   13.6320   19.7290 N   0  0  0  0  0  0  0  0  0  0  0  0
  -10.5110   13.2320   19.6020 C   0  0  0  0  0  0  0  0  0  0  0  0
  -10.8740   11.9500   19.2900 N   0  0  0  0  0  0  0  0  0  0  0  0
  -12.2380   11.8520   19.2550 C   0  0  0  0  0  0  0  0  0  0  0  0
  -12.7510   13.0980   19.5460 C   0  0  0  0  0  0  0  0  0  0  0  0
  -11.6590   13.9980   19.7570 C   0  0  0  0  0  0  0  0  0  0  0  0
  -12.7730   17.2000   19.1230 C   0  0  1  0  0  0  0  0  0  0  0  0
  -13.9860   16.7350   18.2990 C   0  0  0  0  0  0  0  0  0  0  0  0
  -15.1030   17.5760   18.7290 N   0  0  0  0  0  0  0  0  0  0  0  0
  -16.4510   17.3080   18.6290 C   0  0  0  0  0  0  0  0  0  0  0  0
  -16.9820   16.8930   17.6020 O   0  0  0  0  0  0  0  0  0  0  0  0
  -17.3130   17.5520   19.8040 C   0  0  0  0  0  0  0  0  0  0  0  0
  -17.1730   16.7970   20.9660 C   0  0  0  0  0  0  0  0  0  0  0  0
  -18.0350   17.0710   22.0110 C   0  0  0  0  0  0  0  0  0  0  0  0
  -19.0020   18.0130   21.9590 N   0  0  0  0  0  0  0  0  0  0  0  0
  -19.1290   18.7040   20.8050 C   0  0  0  0  0  0  0  0  0  0  0  0
  -18.3190   18.5100   19.7040 C   0  0  0  0  0  0  0  0  0  0  0  0
  -14.6480   18.7920   19.3750 C   0  0  0  0  0  0  0  0  0  0  0  0
  -13.1620   18.6060   19.5600 C   0  0  0  0  0  0  0  0  0  0  0  0
  -12.2350   19.7690   19.2400 C   0  0  0  0  0  0  0  0  0  0  0  0
  -12.4160   19.3400   20.6630 C   0  0  0  0  0  0  0  0  0  0  0  0
  1  2  1  0
  2  3  1  0
  3  4  2  0
  4  5  1  0
  5  6  2  0
  6  7  1  0
  7  8  1  0
  8  9  1  0
  9 10  2  0
 10 11  1  0
 12  2  1  1
 12 13  1  0
 13 14  1  0
 14 15  1  0
 15 16  2  0
 15 17  1  0
 17 18  2  0
 18 19  1  0
 19 20  2  0
 20 21  1  0
 21 22  2  0
 14 23  1  0
 23 24  1  0
 24 25  1  0
 25 26  1  0
 11  3  1  0
 24 12  1  0
 11  7  2  0
 22 17  1  0
 26 24  1  0
M  END
$$$$
