OREKERSNHHDONJ-UHFFFAOYSA-N
     RDKit          3D

 39 44  0  0  0  0  0  0  0  0999 V2000
  124.8700  -14.9170  154.9310 N   0  0  0  0  0  0  0  0  0  0  0  0
  125.9400  -15.6080  155.1670 C   0  0  0  0  0  0  0  0  0  0  0  0
  125.9070  -16.9260  154.8550 N   0  0  0  0  0  0  0  0  0  0  0  0
  127.1680  -15.0020  155.7480 C   0  0  0  0  0  0  0  0  0  0  0  0
  128.1340  -14.4570  154.8990 C   0  0  0  0  0  0  0  0  0  0  0  0
  129.2960  -13.8770  155.4150 C   0  0  0  0  0  0  0  0  0  0  0  0
  129.4520  -13.8620  156.8070 C   0  0  0  0  0  0  0  0  0  0  0  0
  130.4820  -13.3680  157.5710 N   0  0  0  0  0  0  0  0  0  0  0  0
  130.2220  -13.5660  158.9000 C   0  0  0  0  0  0  0  0  0  0  0  0
  129.0060  -14.2150  159.0160 C   0  0  0  0  0  0  0  0  0  0  0  0
  128.3600  -14.6460  160.3160 C   0  0  2  0  0  0  0  0  0  0  0  0
  127.0030  -13.9590  160.5670 C   0  0  0  0  0  0  0  0  0  0  0  0
  126.4290  -14.2480  161.9360 C   0  0  0  0  0  0  0  0  0  0  0  0
  126.1650  -13.2030  162.8320 C   0  0  0  0  0  0  0  0  0  0  0  0
  125.6240  -13.4690  164.0910 C   0  0  0  0  0  0  0  0  0  0  0  0
  125.3430  -14.7820  164.4650 C   0  0  0  0  0  0  0  0  0  0  0  0
  125.5980  -15.8280  163.5810 C   0  0  0  0  0  0  0  0  0  0  0  0
  126.1370  -15.5630  162.3210 C   0  0  0  0  0  0  0  0  0  0  0  0
  129.3150  -14.4080  161.4980 C   0  0  0  0  0  0  0  0  0  0  0  0
  129.5540  -13.2810  161.9260 O   0  0  0  0  0  0  0  0  0  0  0  0
  129.8290  -15.5860  162.0170 N   0  0  0  0  0  0  0  0  0  0  0  0
  130.7180  -15.7430  163.1000 C   0  0  0  0  0  0  0  0  0  0  0  0
  132.0990  -15.8650  162.9770 C   0  0  0  0  0  0  0  0  0  0  0  0
  132.9030  -16.0150  164.1190 C   0  0  0  0  0  0  0  0  0  0  0  0
  132.3340  -16.0570  165.4020 C   0  0  0  0  0  0  0  0  0  0  0  0
  133.1670  -16.1910  166.5520 N   0  0  0  0  0  0  0  0  0  0  0  0
  133.5340  -15.1540  167.3880 C   0  0  0  0  0  0  0  0  0  0  0  0
  134.2230  -15.5510  168.4310 N   0  0  0  0  0  0  0  0  0  0  0  0
  134.3660  -16.8990  168.2630 C   0  0  0  0  0  0  0  0  0  0  0  0
  135.0420  -17.8130  169.0860 C   0  0  0  0  0  0  0  0  0  0  0  0
  135.1130  -19.1540  168.7000 C   0  0  0  0  0  0  0  0  0  0  0  0
  134.5380  -19.5750  167.5030 C   0  0  0  0  0  0  0  0  0  0  0  0
  133.8570  -18.6770  166.6700 C   0  0  0  0  0  0  0  0  0  0  0  0
  133.7490  -17.3380  167.0870 C   0  0  0  0  0  0  0  0  0  0  0  0
  130.9480  -15.9220  165.5260 C   0  0  0  0  0  0  0  0  0  0  0  0
  130.1630  -15.7760  164.3830 C   0  0  0  0  0  0  0  0  0  0  0  0
  128.8350  -15.6370  164.5300 F   0  0  0  0  0  0  0  0  0  0  0  0
  128.5070  -14.4000  157.6830 C   0  0  0  0  0  0  0  0  0  0  0  0
  127.3400  -14.9790  157.1400 C   0  0  0  0  0  0  0  0  0  0  0  0
  1  2  2  0
  2  3  1  0
  2  4  1  0
  4  5  2  0
  5  6  1  0
  6  7  2  0
  7  8  1  0
  8  9  1  0
  9 10  2  0
 10 11  1  0
 11 12  1  1
 12 13  1  0
 13 14  2  0
 14 15  1  0
 15 16  2  0
 16 17  1  0
 17 18  2  0
 11 19  1  0
 19 20  2  0
 19 21  1  0
 21 22  1  0
 22 23  2  0
 23 24  1  0
 24 25  2  0
 25 26  1  0
 26 27  1  0
 27 28  2  0
 28 29  1  0
 29 30  2  0
 30 31  1  0
 31 32  2  0
 32 33  1  0
 33 34  2  0
 25 35  1  0
 35 36  2  0
 36 37  1  0
 10 38  1  0
 38 39  2  0
 39  4  1  0
 38  7  1  0
 18 13  1  0
 36 22  1  0
 34 26  1  0
 34 29  1  0
M  END
$$$$
