YUQFGXOAMDWWBP-AATRIKPKSA-N
     RDKit          3D

 44 47  0  0  0  0  0  0  0  0999 V2000
    2.8450    7.2280    0.2290 C   0  0  0  0  0  0  0  0  0  0  0  0
    3.5980    6.3090   -0.7140 C   0  0  0  0  0  0  0  0  0  0  0  0
    4.1600    7.0650   -1.7960 O   0  0  0  0  0  0  0  0  0  0  0  0
    3.4620    7.0340   -2.9700 C   0  0  0  0  0  0  0  0  0  0  0  0
    2.5610    6.2460   -3.2240 O   0  0  0  0  0  0  0  0  0  0  0  0
    4.0120    8.0900   -3.9420 C   0  0  2  0  0  0  0  0  0  0  0  0
    3.9140    7.5380   -5.3740 C   0  0  0  0  0  0  0  0  0  0  0  0
    5.1640    6.7850   -5.7780 C   0  0  0  0  0  0  0  0  0  0  0  0
    6.1900    7.4330   -6.4730 C   0  0  0  0  0  0  0  0  0  0  0  0
    7.3430    6.7330   -6.8350 C   0  0  0  0  0  0  0  0  0  0  0  0
    7.4930    5.3810   -6.5140 C   0  0  0  0  0  0  0  0  0  0  0  0
    8.6630    4.8250   -6.9470 O   0  0  0  0  0  0  0  0  0  0  0  0
    8.6980    4.2270   -8.2430 C   0  0  0  0  0  0  0  0  0  0  0  0
   10.1060    4.2800   -8.8400 C   0  0  0  0  0  0  0  0  0  0  0  0
   10.2390    5.3090   -9.8490 N   0  0  0  0  0  0  0  0  0  0  0  0
   10.3880    4.9760  -11.1900 C   0  0  0  0  0  0  0  0  0  0  0  0
   10.4390    3.8520  -11.6630 O   0  0  0  0  0  0  0  0  0  0  0  0
   10.5200    6.4480  -12.1630 S   0  0  0  0  0  0  0  0  0  0  0  0
   10.4120    7.4680  -10.7200 C   0  0  0  0  0  0  0  0  0  0  0  0
   10.4520    8.8530  -10.6640 C   0  0  0  0  0  0  0  0  0  0  0  0
   10.3640    9.4840   -9.4160 C   0  0  0  0  0  0  0  0  0  0  0  0
   10.3580   10.9490   -9.2760 C   0  0  0  0  0  0  0  0  0  0  0  0
   10.2630   11.5930   -8.1010 C   0  0  0  0  0  0  0  0  0  0  0  0
   10.2700   13.0580   -7.9710 C   0  0  0  0  0  0  0  0  0  0  0  0
   11.2020   13.7360   -7.1770 C   0  0  0  0  0  0  0  0  0  0  0  0
   11.2020   15.1330   -7.1010 C   0  0  0  0  0  0  0  0  0  0  0  0
   12.1690   15.6540   -6.2850 O   0  0  0  0  0  0  0  0  0  0  0  0
   13.0920   14.7380   -5.7080 C   0  0  0  0  0  0  0  0  0  0  0  0
   10.2600   15.8660   -7.8290 C   0  0  0  0  0  0  0  0  0  0  0  0
    9.3320   15.2040   -8.6370 C   0  0  0  0  0  0  0  0  0  0  0  0
    8.3660   15.7970   -9.4050 O   0  0  0  0  0  0  0  0  0  0  0  0
    7.0120   15.5320   -9.0630 C   0  0  0  0  0  0  0  0  0  0  0  0
    9.3480   13.8070   -8.7080 C   0  0  0  0  0  0  0  0  0  0  0  0
   10.2160    8.6950   -8.2580 C   0  0  0  0  0  0  0  0  0  0  0  0
   10.1740    7.2960   -8.3270 C   0  0  0  0  0  0  0  0  0  0  0  0
   10.2710    6.6900   -9.5700 C   0  0  0  0  0  0  0  0  0  0  0  0
    6.4770    4.7360   -5.8100 C   0  0  0  0  0  0  0  0  0  0  0  0
    5.3210    5.4350   -5.4430 C   0  0  0  0  0  0  0  0  0  0  0  0
    5.3860    8.4220   -3.7000 O   0  0  0  0  0  0  0  0  0  0  0  0
    5.6080    9.8320   -3.5420 C   0  0  0  0  0  0  0  0  0  0  0  0
    6.7750   10.1300   -2.6030 C   0  0  0  0  0  0  0  0  0  0  0  0
    7.1100    9.0490   -1.8640 F   0  0  0  0  0  0  0  0  0  0  0  0
    7.8700   10.4820   -3.3190 F   0  0  0  0  0  0  0  0  0  0  0  0
    6.5010   11.1480   -1.7590 F   0  0  0  0  0  0  0  0  0  0  0  0
  1  2  1  0
  2  3  1  0
  3  4  1  0
  4  5  2  0
  4  6  1  0
  6  7  1  6
  7  8  1  0
  8  9  2  0
  9 10  1  0
 10 11  2  0
 11 12  1  0
 12 13  1  0
 13 14  1  0
 14 15  1  0
 15 16  1  0
 16 17  2  0
 16 18  1  0
 18 19  1  0
 19 20  2  0
 20 21  1  0
 21 22  1  0
 22 23  2  0
 23 24  1  0
 24 25  2  0
 25 26  1  0
 26 27  1  0
 27 28  1  0
 26 29  2  0
 29 30  1  0
 30 31  1  0
 31 32  1  0
 30 33  2  0
 21 34  2  0
 34 35  1  0
 35 36  2  0
 11 37  1  0
 37 38  2  0
  6 39  1  0
 39 40  1  0
 40 41  1  0
 41 42  1  0
 41 43  1  0
 41 44  1  0
 38  8  1  0
 36 15  1  0
 36 19  1  0
 33 24  1  0
M  END
$$$$
