ZSUHWNHDMNXZIQ-RBUKOAKNSA-N
     RDKit          3D

 39 43  0  0  0  0  0  0  0  0999 V2000
  -24.4230   20.8340   21.8380 C   0  0  0  0  0  0  0  0  0  0  0  0
  -22.9340   20.5890   21.6620 C   0  0  0  0  0  0  0  0  0  0  0  0
  -22.7080   20.2350   20.2990 O   0  0  0  0  0  0  0  0  0  0  0  0
  -21.8660   21.0670   19.6400 C   0  0  0  0  0  0  0  0  0  0  0  0
  -22.1950   22.3380   19.3850 N   0  0  0  0  0  0  0  0  0  0  0  0
  -21.0960   22.8120   18.7610 N   0  0  0  0  0  0  0  0  0  0  0  0
  -21.0750   24.1790   18.3020 C   0  0  0  0  0  0  0  0  0  0  0  0
  -20.0980   21.8920   18.6240 C   0  0  0  0  0  0  0  0  0  0  0  0
  -20.5730   20.7320   19.1820 C   0  0  0  0  0  0  0  0  0  0  0  0
  -19.9750   19.5270   19.2800 N   0  0  0  0  0  0  0  0  0  0  0  0
  -19.1800   18.9700   20.2800 C   0  0  0  0  0  0  0  0  0  0  0  0
  -19.8260   18.5960   21.3950 N   0  0  0  0  0  0  0  0  0  0  0  0
  -19.0810   18.0760   22.3910 C   0  0  0  0  0  0  0  0  0  0  0  0
  -17.7120   17.9230   22.3390 C   0  0  0  0  0  0  0  0  0  0  0  0
  -16.9580   17.3620   23.4980 C   0  0  0  0  0  0  0  0  0  0  0  0
  -17.1400   18.3740   21.1670 C   0  0  0  0  0  0  0  0  0  0  0  0
  -15.7030   18.3930   20.9530 C   0  0  0  0  0  0  0  0  0  0  0  0
  -14.9440   19.5360   21.0800 C   0  0  0  0  0  0  0  0  0  0  0  0
  -13.6390   19.1990   20.8590 N   0  0  0  0  0  0  0  0  0  0  0  0
  -13.5070   17.8450   20.6290 C   0  0  0  0  0  0  0  0  0  0  0  0
  -12.3690   17.0490   20.4050 C   0  0  0  0  0  0  0  0  0  0  0  0
  -11.0340   17.4840   20.3730 N   0  0  0  0  0  0  0  0  0  0  0  0
  -10.3250   18.0950   19.3560 C   0  0  0  0  0  0  0  0  0  0  0  0
  -10.7440   18.3760   18.2350 O   0  0  0  0  0  0  0  0  0  0  0  0
   -8.8930   18.4940   19.7950 C   0  0  1  0  0  0  0  0  0  0  0  0
   -9.0640   19.5770   20.8690 C   0  0  0  0  0  0  0  0  0  0  0  0
   -8.1420   17.2890   20.2710 N   0  0  0  0  0  0  0  0  0  0  0  0
   -7.3430   17.5780   21.4850 C   0  0  0  0  0  0  0  0  0  0  0  0
   -6.4640   16.3880   21.9390 C   0  0  0  0  0  0  0  0  0  0  0  0
   -5.5930   15.8130   20.8970 N   0  0  0  0  0  0  0  0  0  0  0  0
   -4.4270   16.6610   20.6560 C   0  0  0  0  0  0  0  0  0  0  0  0
   -6.3620   15.5800   19.6510 C   0  0  1  0  0  0  0  0  0  0  0  0
   -7.2360   14.3260   19.8030 C   0  0  0  0  0  0  0  0  0  0  0  0
   -7.2180   16.8020   19.2120 C   0  0  0  0  0  0  0  0  0  0  0  0
  -12.5900   15.6750   20.2080 C   0  0  0  0  0  0  0  0  0  0  0  0
  -13.8670   15.1210   20.2440 C   0  0  0  0  0  0  0  0  0  0  0  0
  -14.9790   15.9280   20.4820 C   0  0  0  0  0  0  0  0  0  0  0  0
  -14.8040   17.3140   20.6740 C   0  0  0  0  0  0  0  0  0  0  0  0
  -17.8550   18.8670   20.1340 N   0  0  0  0  0  0  0  0  0  0  0  0
  1  2  1  0
  2  3  1  0
  3  4  1  0
  4  5  2  0
  5  6  1  0
  6  7  1  0
  6  8  1  0
  8  9  2  0
  9 10  1  0
 10 11  1  0
 11 12  2  0
 12 13  1  0
 13 14  2  0
 14 15  1  0
 14 16  1  0
 16 17  1  0
 17 18  2  0
 18 19  1  0
 19 20  1  0
 20 21  2  0
 21 22  1  0
 22 23  1  0
 23 24  2  0
 23 25  1  0
 25 26  1  1
 25 27  1  0
 27 28  1  0
 28 29  1  0
 29 30  1  0
 30 31  1  0
 30 32  1  0
 32 33  1  1
 32 34  1  0
 21 35  1  0
 35 36  2  0
 36 37  1  0
 37 38  2  0
 16 39  2  0
  9  4  1  0
 39 11  1  0
 38 17  1  0
 38 20  1  0
 34 27  1  0
M  END
$$$$
