GLMPXCWPQNWBLX-UHFFFAOYSA-N
     RDKit          3D

 36 39  0  0  0  0  0  0  0  0999 V2000
   -2.0980    7.3530   28.2140 C   0  0  0  0  0  0  0  0  0  0  0  0
   -1.3820    8.5260   27.8370 O   0  0  0  0  0  0  0  0  0  0  0  0
   -2.2490    9.5540   27.3420 C   0  0  0  0  0  0  0  0  0  0  0  0
   -1.7770    9.9130   25.9860 C   0  0  0  0  0  0  0  0  0  0  0  0
   -0.6470    9.2800   25.5840 O   0  0  0  0  0  0  0  0  0  0  0  0
   -0.3030    9.7000   24.3240 N   0  0  0  0  0  0  0  0  0  0  0  0
   -1.2180   10.6160   23.9650 C   0  0  0  0  0  0  0  0  0  0  0  0
   -1.1170   11.2580   22.6580 C   0  0  0  0  0  0  0  0  0  0  0  0
   -2.1780   11.1650   21.7440 C   0  0  0  0  0  0  0  0  0  0  0  0
   -2.0980   11.7860   20.4950 C   0  0  0  0  0  0  0  0  0  0  0  0
   -0.9570   12.5080   20.1480 C   0  0  0  0  0  0  0  0  0  0  0  0
    0.1110   12.5920   21.0460 C   0  0  0  0  0  0  0  0  0  0  0  0
    1.3160   13.3940   20.7100 C   0  0  0  0  0  0  0  0  0  0  0  0
    2.5120   12.9000   20.7620 N   0  0  0  0  0  0  0  0  0  0  0  0
    1.1790   14.6860   20.3260 N   0  0  0  0  0  0  0  0  0  0  0  0
    0.0390   11.9540   22.2890 C   0  0  0  0  0  0  0  0  0  0  0  0
   -2.2130   10.7690   24.9890 C   0  0  0  0  0  0  0  0  0  0  0  0
   -3.3970   11.6240   24.9980 C   0  0  0  0  0  0  0  0  0  0  0  0
   -4.5130   11.1520   24.8130 O   0  0  0  0  0  0  0  0  0  0  0  0
   -3.1400   12.9580   25.2490 N   0  0  0  0  0  0  0  0  0  0  0  0
   -4.0520   14.0340   25.2660 C   0  0  0  0  0  0  0  0  0  0  0  0
   -4.9810   14.0590   26.3110 C   0  0  0  0  0  0  0  0  0  0  0  0
   -5.9190   15.0920   26.4140 C   0  0  0  0  0  0  0  0  0  0  0  0
   -5.9390   16.1350   25.4800 C   0  0  0  0  0  0  0  0  0  0  0  0
   -6.9230   17.2230   25.5770 C   0  0  0  0  0  0  0  0  0  0  0  0
   -6.5800   18.3700   26.3190 C   0  0  0  0  0  0  0  0  0  0  0  0
   -7.4580   19.4500   26.4370 C   0  0  0  0  0  0  0  0  0  0  0  0
   -8.7000   19.4090   25.8110 C   0  0  0  0  0  0  0  0  0  0  0  0
   -9.0690   18.2860   25.0730 C   0  0  0  0  0  0  0  0  0  0  0  0
   -8.1900   17.1950   24.9570 C   0  0  0  0  0  0  0  0  0  0  0  0
   -8.6980   15.7650   24.0410 S   0  0  0  0  0  0  0  0  0  0  0  0
  -10.2680   16.1120   23.5310 N   0  0  0  0  0  0  0  0  0  0  0  0
   -7.9240   15.6970   22.8220 O   0  0  0  0  0  0  0  0  0  0  0  0
   -8.8650   14.6490   24.9420 O   0  0  0  0  0  0  0  0  0  0  0  0
   -5.0080   16.1030   24.4330 C   0  0  0  0  0  0  0  0  0  0  0  0
   -4.0740   15.0630   24.3260 C   0  0  0  0  0  0  0  0  0  0  0  0
  1  2  1  0
  2  3  1  0
  3  4  1  0
  4  5  1  0
  5  6  1  0
  6  7  2  0
  7  8  1  0
  8  9  2  0
  9 10  1  0
 10 11  2  0
 11 12  1  0
 12 13  1  0
 13 14  2  0
 13 15  1  0
 12 16  2  0
  7 17  1  0
 17 18  1  0
 18 19  2  0
 18 20  1  0
 20 21  1  0
 21 22  2  0
 22 23  1  0
 23 24  2  0
 24 25  1  0
 25 26  2  0
 26 27  1  0
 27 28  2  0
 28 29  1  0
 29 30  2  0
 30 31  1  0
 31 32  1  0
 31 33  2  0
 31 34  2  0
 24 35  1  0
 35 36  2  0
 17  4  2  0
 36 21  1  0
 16  8  1  0
 30 25  1  0
M  END
$$$$
