WTLXPXUKKTVUIR-INIZCTEOSA-N
     RDKit          3D

 26 30  0  0  0  0  0  0  0  0999 V2000
  -13.9650   16.8130   21.6240 C   0  0  0  0  0  0  0  0  0  0  0  0
  -14.1910   16.1160   20.3640 N   0  0  0  0  0  0  0  0  0  0  0  0
  -13.2670   15.1100   20.0640 C   0  0  0  0  0  0  0  0  0  0  0  0
  -11.9520   15.4390   19.9230 N   0  0  0  0  0  0  0  0  0  0  0  0
  -11.0590   14.4780   19.6120 C   0  0  0  0  0  0  0  0  0  0  0  0
  -11.2810   13.1700   19.4230 N   0  0  0  0  0  0  0  0  0  0  0  0
  -12.5750   12.8700   19.6030 C   0  0  0  0  0  0  0  0  0  0  0  0
  -13.0930   11.6090   19.5040 N   0  0  0  0  0  0  0  0  0  0  0  0
  -14.4350   11.6350   19.7790 C   0  0  0  0  0  0  0  0  0  0  0  0
  -14.7770   12.9430   20.0500 C   0  0  0  0  0  0  0  0  0  0  0  0
  -13.6040   13.7460   19.9190 C   0  0  0  0  0  0  0  0  0  0  0  0
  -15.5680   15.8500   19.9130 C   0  0  1  0  0  0  0  0  0  0  0  0
  -16.6420   16.4020   20.8700 C   0  0  0  0  0  0  0  0  0  0  0  0
  -17.0540   17.6820   20.2960 N   0  0  0  0  0  0  0  0  0  0  0  0
  -17.6370   18.7500   20.9460 C   0  0  0  0  0  0  0  0  0  0  0  0
  -17.0020   19.5430   21.6370 O   0  0  0  0  0  0  0  0  0  0  0  0
  -19.0990   18.9380   20.8280 C   0  0  0  0  0  0  0  0  0  0  0  0
  -19.5940   19.6930   19.7610 C   0  0  0  0  0  0  0  0  0  0  0  0
  -20.9710   19.8720   19.6210 C   0  0  0  0  0  0  0  0  0  0  0  0
  -21.8480   19.2850   20.5340 C   0  0  0  0  0  0  0  0  0  0  0  0
  -21.3520   18.5100   21.5850 C   0  0  0  0  0  0  0  0  0  0  0  0
  -19.9760   18.3280   21.7310 C   0  0  0  0  0  0  0  0  0  0  0  0
  -16.7330   17.7710   18.8850 C   0  0  0  0  0  0  0  0  0  0  0  0
  -15.8760   16.5620   18.6030 C   0  0  0  0  0  0  0  0  0  0  0  0
  -16.1430   15.7430   17.3510 C   0  0  0  0  0  0  0  0  0  0  0  0
  -14.8930   16.5630   17.4460 C   0  0  0  0  0  0  0  0  0  0  0  0
  1  2  1  0
  2  3  1  0
  3  4  2  0
  4  5  1  0
  5  6  2  0
  6  7  1  0
  7  8  1  0
  8  9  1  0
  9 10  2  0
 10 11  1  0
 12  2  1  1
 12 13  1  0
 13 14  1  0
 14 15  1  0
 15 16  2  0
 15 17  1  0
 17 18  2  0
 18 19  1  0
 19 20  2  0
 20 21  1  0
 21 22  2  0
 14 23  1  0
 23 24  1  0
 24 25  1  0
 25 26  1  0
 11  3  1  0
 24 12  1  0
 11  7  2  0
 22 17  1  0
 26 24  1  0
M  END
$$$$
