NGKDXIDMJWVNHU-UHFFFAOYSA-N
     RDKit          3D

 33 37  0  0  0  0  0  0  0  0999 V2000
   14.5030   -0.3450   28.3460 Cl  0  0  0  0  0  0  0  0  0  0  0  0
   13.3720    0.8810   28.8060 C   0  0  0  0  0  0  0  0  0  0  0  0
   12.3790    0.5440   29.7330 C   0  0  0  0  0  0  0  0  0  0  0  0
   11.4220    1.4830   30.1450 C   0  0  0  0  0  0  0  0  0  0  0  0
   10.4450    1.0870   31.0700 N   0  0  0  0  0  0  0  0  0  0  0  0
    9.8040   -0.1460   31.3240 C   0  0  0  0  0  0  0  0  0  0  0  0
   10.4710   -1.2890   31.0660 N   0  0  0  0  0  0  0  0  0  0  0  0
    9.8390   -2.4330   31.3230 C   0  0  0  0  0  0  0  0  0  0  0  0
    8.6040   -2.5570   31.8100 N   0  0  0  0  0  0  0  0  0  0  0  0
    7.9410   -1.4250   32.0600 C   0  0  0  0  0  0  0  0  0  0  0  0
    6.6600   -1.5430   32.5820 C   0  0  0  0  0  0  0  0  0  0  0  0
    5.8830   -0.4290   32.9000 C   0  0  0  0  0  0  0  0  0  0  0  0
    6.3900    0.8410   32.6790 C   0  0  0  0  0  0  0  0  0  0  0  0
    7.6630    0.9880   32.1210 C   0  0  0  0  0  0  0  0  0  0  0  0
    8.1840    2.2480   31.9230 O   0  0  0  0  0  0  0  0  0  0  0  0
    7.1990    3.2490   31.6060 C   0  0  0  0  0  0  0  0  0  0  0  0
    7.4000    3.6830   30.1540 C   0  0  0  0  0  0  0  0  0  0  0  0
    6.5160    4.8770   29.8350 C   0  0  0  0  0  0  0  0  0  0  0  0
    6.7790    5.9500   30.7390 O   0  0  0  0  0  0  0  0  0  0  0  0
    6.5150    5.6020   32.0960 C   0  0  0  0  0  0  0  0  0  0  0  0
    7.3990    4.4460   32.5340 C   0  0  0  0  0  0  0  0  0  0  0  0
    8.4790   -0.1490   31.8300 C   0  0  0  0  0  0  0  0  0  0  0  0
   11.5070    2.7700   29.6090 C   0  0  0  0  0  0  0  0  0  0  0  0
   12.4980    3.1140   28.6770 C   0  0  0  0  0  0  0  0  0  0  0  0
   13.4310    2.1670   28.2570 C   0  0  0  0  0  0  0  0  0  0  0  0
   14.4350    2.4250   27.3620 O   0  0  0  0  0  0  0  0  0  0  0  0
   14.0350    2.9100   26.0770 C   0  0  0  0  0  0  0  0  0  0  0  0
   14.6220    4.2810   25.8190 C   0  0  0  0  0  0  0  0  0  0  0  0
   13.7970    5.3890   25.6240 C   0  0  0  0  0  0  0  0  0  0  0  0
   14.3790    6.6370   25.4260 C   0  0  0  0  0  0  0  0  0  0  0  0
   15.7630    6.7540   25.4380 C   0  0  0  0  0  0  0  0  0  0  0  0
   16.5120    5.6100   25.6530 C   0  0  0  0  0  0  0  0  0  0  0  0
   15.9770    4.3850   25.8500 N   0  0  0  0  0  0  0  0  0  0  0  0
  1  2  1  0
  2  3  2  0
  3  4  1  0
  4  5  1  0
  5  6  1  0
  6  7  2  0
  7  8  1  0
  8  9  2  0
  9 10  1  0
 10 11  2  0
 11 12  1  0
 12 13  2  0
 13 14  1  0
 14 15  1  0
 15 16  1  0
 16 17  1  0
 17 18  1  0
 18 19  1  0
 19 20  1  0
 20 21  1  0
 14 22  2  0
  4 23  2  0
 23 24  1  0
 24 25  2  0
 25 26  1  0
 26 27  1  0
 27 28  1  0
 28 29  2  0
 29 30  1  0
 30 31  2  0
 31 32  1  0
 32 33  2  0
 25  2  1  0
 33 28  1  0
 22  6  1  0
 22 10  1  0
 21 16  1  0
M  END
$$$$
