IINXCVBTZBRIPU-UHFFFAOYSA-N
     RDKit          3D

 38 41  0  0  0  0  0  0  0  0999 V2000
  141.1930  107.3310   39.8970 C   0  0  0  0  0  0  0  0  0  0  0  0
  141.5010  108.3290   38.7960 C   0  0  0  0  0  0  0  0  0  0  0  0
  140.4450  109.2960   38.6960 O   0  0  0  0  0  0  0  0  0  0  0  0
  139.4370  108.9770   37.8520 C   0  0  0  0  0  0  0  0  0  0  0  0
  139.4110  108.0790   37.0290 O   0  0  0  0  0  0  0  0  0  0  0  0
  138.3080  109.8660   38.1190 C   0  0  0  0  0  0  0  0  0  0  0  0
  138.1650  111.0550   37.4330 C   0  0  0  0  0  0  0  0  0  0  0  0
  139.1560  111.5070   36.4010 C   0  0  0  0  0  0  0  0  0  0  0  0
  137.1140  111.8820   37.6490 N   0  0  0  0  0  0  0  0  0  0  0  0
  136.1890  111.5320   38.5570 C   0  0  0  0  0  0  0  0  0  0  0  0
  135.1110  112.3710   38.7720 N   0  0  0  0  0  0  0  0  0  0  0  0
  135.3300  113.8030   38.5550 C   0  0  0  0  0  0  0  0  0  0  0  0
  134.0060  114.5910   38.5140 C   0  0  0  0  0  0  0  0  0  0  0  0
  133.0700  114.2470   39.6330 N   0  0  0  0  0  0  0  0  0  0  0  0
  133.3760  114.9550   41.1470 S   0  0  0  0  0  0  0  0  0  0  0  0
  133.2110  113.9430   42.1660 O   0  0  0  0  0  0  0  0  0  0  0  0
  132.6600  116.2100   41.2170 O   0  0  0  0  0  0  0  0  0  0  0  0
  135.1030  115.3540   41.0420 C   0  0  0  0  0  0  0  0  0  0  0  0
  135.4800  116.6610   40.7270 C   0  0  0  0  0  0  0  0  0  0  0  0
  136.8360  116.9940   40.6500 C   0  0  0  0  0  0  0  0  0  0  0  0
  137.8210  116.0300   40.8880 C   0  0  0  0  0  0  0  0  0  0  0  0
  139.2090  116.3060   40.8280 N   0  0  0  0  0  0  0  0  0  0  0  0
  139.9760  117.0170   41.7290 C   0  0  0  0  0  0  0  0  0  0  0  0
  141.4270  117.0920   41.3230 C   0  0  0  0  0  0  0  0  0  0  0  0
  139.5810  117.5740   42.7470 O   0  0  0  0  0  0  0  0  0  0  0  0
  137.4140  114.7180   41.2120 C   0  0  0  0  0  0  0  0  0  0  0  0
  138.5840  113.4780   41.5190 Cl  0  0  0  0  0  0  0  0  0  0  0  0
  136.0640  114.3750   41.2920 C   0  0  0  0  0  0  0  0  0  0  0  0
  132.8390  112.7670   39.6690 C   0  0  0  0  0  0  0  0  0  0  0  0
  134.1490  111.9740   39.8030 C   0  0  0  0  0  0  0  0  0  0  0  0
  136.2700  110.3890   39.2520 N   0  0  0  0  0  0  0  0  0  0  0  0
  137.3320  109.5700   39.0500 C   0  0  0  0  0  0  0  0  0  0  0  0
  137.3440  108.3800   39.9210 C   0  0  0  0  0  0  0  0  0  0  0  0
  136.7210  107.1900   39.5060 C   0  0  0  0  0  0  0  0  0  0  0  0
  136.7220  106.0540   40.3180 C   0  0  0  0  0  0  0  0  0  0  0  0
  137.3380  106.0910   41.5660 C   0  0  0  0  0  0  0  0  0  0  0  0
  137.9500  107.2630   42.0020 C   0  0  0  0  0  0  0  0  0  0  0  0
  137.9490  108.4000   41.1900 C   0  0  0  0  0  0  0  0  0  0  0  0
  1  2  1  0
  2  3  1  0
  3  4  1  0
  4  5  2  0
  4  6  1  0
  6  7  2  0
  7  8  1  0
  7  9  1  0
  9 10  2  0
 10 11  1  0
 11 12  1  0
 12 13  1  0
 13 14  1  0
 14 15  1  0
 15 16  2  0
 15 17  2  0
 15 18  1  0
 18 19  2  0
 19 20  1  0
 20 21  2  0
 21 22  1  0
 22 23  1  0
 23 24  1  0
 23 25  2  0
 21 26  1  0
 26 27  1  0
 26 28  2  0
 14 29  1  0
 29 30  1  0
 10 31  1  0
 31 32  2  0
 32 33  1  0
 33 34  2  0
 34 35  1  0
 35 36  2  0
 36 37  1  0
 37 38  2  0
 32  6  1  0
 38 33  1  0
 30 11  1  0
 28 18  1  0
M  END
$$$$
