UNOREIGWESJDHG-UHFFFAOYSA-N
     RDKit          3D

 32 34  0  0  0  0  0  0  0  0999 V2000
    2.0220    6.5460    0.6430 C   0  0  0  0  0  0  0  0  0  0  0  0
    2.4220    5.8830   -0.6720 C   0  0  0  0  0  0  0  0  0  0  0  0
    3.7680    5.1840   -0.5260 C   0  0  0  0  0  0  0  0  0  0  0  0
    2.5700    6.8780   -1.6880 O   0  0  0  0  0  0  0  0  0  0  0  0
    3.8960    6.9670   -2.2290 C   0  0  1  0  0  0  0  0  0  0  0  0
    3.7980    6.7790   -3.7490 C   0  0  0  0  0  0  0  0  0  0  0  0
    4.9810    6.0110   -4.2990 C   0  0  0  0  0  0  0  0  0  0  0  0
    5.7720    5.2250   -3.4550 C   0  0  0  0  0  0  0  0  0  0  0  0
    6.8470    4.5000   -3.9740 C   0  0  0  0  0  0  0  0  0  0  0  0
    7.1490    4.5440   -5.3370 C   0  0  0  0  0  0  0  0  0  0  0  0
    8.2240    3.7850   -5.7060 O   0  0  0  0  0  0  0  0  0  0  0  0
    9.4870    4.4500   -5.8160 C   0  0  0  0  0  0  0  0  0  0  0  0
    9.7450    4.8790   -7.2200 C   0  0  0  0  0  0  0  0  0  0  0  0
    9.9820    4.0060   -8.2100 N   0  0  0  0  0  0  0  0  0  0  0  0
   10.1700    4.8310   -9.3210 O   0  0  0  0  0  0  0  0  0  0  0  0
   10.0160    6.1200   -8.8890 C   0  0  0  0  0  0  0  0  0  0  0  0
   10.1730    7.1790   -9.8780 C   0  0  0  0  0  0  0  0  0  0  0  0
   10.0330    8.5160   -9.4900 C   0  0  0  0  0  0  0  0  0  0  0  0
   10.1820    9.5530  -10.4180 C   0  0  0  0  0  0  0  0  0  0  0  0
   10.4770    9.2960  -11.7700 C   0  0  0  0  0  0  0  0  0  0  0  0
   10.6360   10.4610  -12.7620 C   0  0  0  0  0  0  0  0  0  0  0  0
    9.5520   10.4970  -13.8620 C   0  0  0  0  0  0  0  0  0  0  0  0
   12.0030   10.3540  -13.4720 C   0  0  0  0  0  0  0  0  0  0  0  0
   10.5620   11.8040  -12.0040 C   0  0  0  0  0  0  0  0  0  0  0  0
   10.6150    7.9510  -12.1490 C   0  0  0  0  0  0  0  0  0  0  0  0
   10.4660    6.9110  -11.2200 C   0  0  0  0  0  0  0  0  0  0  0  0
    9.7380    6.1990   -7.6050 N   0  0  0  0  0  0  0  0  0  0  0  0
    6.3590    5.3220   -6.1830 C   0  0  0  0  0  0  0  0  0  0  0  0
    5.2810    6.0500   -5.6650 C   0  0  0  0  0  0  0  0  0  0  0  0
    4.5360    8.3280   -1.9370 C   0  0  0  0  0  0  0  0  0  0  0  0
    4.9460    9.1470   -2.7450 O   0  0  0  0  0  0  0  0  0  0  0  0
    4.5820    8.6140   -0.6170 O   0  0  0  0  0  0  0  0  0  0  0  0
  1  2  1  0
  2  3  1  0
  2  4  1  0
  4  5  1  0
  5  6  1  6
  6  7  1  0
  7  8  2  0
  8  9  1  0
  9 10  2  0
 10 11  1  0
 11 12  1  0
 12 13  1  0
 13 14  2  0
 14 15  1  0
 15 16  1  0
 16 17  1  0
 17 18  2  0
 18 19  1  0
 19 20  2  0
 20 21  1  0
 21 22  1  0
 21 23  1  0
 21 24  1  0
 20 25  1  0
 25 26  2  0
 16 27  2  0
 10 28  1  0
 28 29  2  0
  5 30  1  0
 30 31  2  0
 30 32  1  0
 29  7  1  0
 27 13  1  0
 26 17  1  0
M  END
$$$$
