AQOBTKMEQOANSS-FEZSWGLMSA-N
     RDKit          3D

 39 42  0  0  0  0  0  0  0  0999 V2000
  -21.2590  -38.6590   19.1910 C   0  0  0  0  0  0  0  0  0  0  0  0
  -20.0630  -39.1270   20.0140 C   0  0  0  0  0  0  0  0  0  0  0  0
  -20.4500  -39.6770   21.3250 N   0  0  0  0  0  0  0  0  0  0  0  0
  -19.5490  -40.7700   21.7290 C   0  0  0  0  0  0  0  0  0  0  0  0
  -18.0590  -40.4400   21.7800 C   0  0  0  0  0  0  0  0  0  0  0  0
  -21.8800  -40.0280   21.3690 C   0  0  0  0  0  0  0  0  0  0  0  0
  -22.5880  -39.5920   22.6620 C   0  0  0  0  0  0  0  0  0  0  0  0
  -22.8780  -40.7920   23.5660 C   0  0  0  0  0  0  0  0  0  0  0  0
  -22.6940  -40.4320   25.0440 C   0  0  0  0  0  0  0  0  0  0  0  0
  -22.2830  -41.6400   25.8850 C   0  0  0  0  0  0  0  0  0  0  0  0
  -21.2730  -41.2340   26.8100 O   0  0  0  0  0  0  0  0  0  0  0  0
  -19.9990  -41.6680   26.5780 C   0  0  0  0  0  0  0  0  0  0  0  0
  -19.7070  -41.9200   25.2360 C   0  0  0  0  0  0  0  0  0  0  0  0
  -18.4400  -42.3620   24.8540 C   0  0  0  0  0  0  0  0  0  0  0  0
  -17.4480  -42.5610   25.8200 C   0  0  0  0  0  0  0  0  0  0  0  0
  -17.7300  -42.3150   27.1730 C   0  0  0  0  0  0  0  0  0  0  0  0
  -19.0070  -41.8580   27.5420 C   0  0  0  0  0  0  0  0  0  0  0  0
  -16.6560  -42.4740   28.2170 C   0  0  0  0  0  0  0  0  0  0  0  0
  -15.6690  -43.5710   27.8340 C   0  0  0  0  0  0  0  0  0  0  0  0
  -15.1080  -43.3420   26.4590 C   0  0  0  0  0  0  0  0  0  0  0  0
  -13.8130  -43.4040   26.0970 C   0  0  0  0  0  0  0  0  0  0  0  0
  -12.7060  -43.7090   27.0050 C   0  0  0  0  0  0  0  0  0  0  0  0
  -12.5780  -45.0000   27.5240 C   0  0  0  0  0  0  0  0  0  0  0  0
  -11.5270  -45.3120   28.3910 C   0  0  0  0  0  0  0  0  0  0  0  0
  -10.5930  -44.3330   28.7580 C   0  0  0  0  0  0  0  0  0  0  0  0
   -9.4420  -44.6760   29.6840 C   0  0  0  0  0  0  0  0  0  0  0  0
   -9.8710  -45.3290   30.9290 N   0  0  0  0  0  0  0  0  0  0  0  0
   -8.9290  -46.3580   31.3610 C   0  0  0  0  0  0  0  0  0  0  0  0
  -10.1870  -44.3640   31.9940 C   0  0  0  0  0  0  0  0  0  0  0  0
  -11.6470  -44.0100   32.1890 C   0  0  0  0  0  0  0  0  0  0  0  0
  -12.6590  -44.8770   31.7480 C   0  0  0  0  0  0  0  0  0  0  0  0
  -14.0040  -44.5510   31.9310 C   0  0  0  0  0  0  0  0  0  0  0  0
  -14.3550  -43.3550   32.5510 C   0  0  0  0  0  0  0  0  0  0  0  0
  -13.3620  -42.4810   32.9870 C   0  0  0  0  0  0  0  0  0  0  0  0
  -12.0160  -42.8030   32.8060 C   0  0  0  0  0  0  0  0  0  0  0  0
  -10.7300  -43.0390   28.2360 C   0  0  0  0  0  0  0  0  0  0  0  0
  -11.7810  -42.7260   27.3700 C   0  0  0  0  0  0  0  0  0  0  0  0
  -16.0960  -43.0070   25.3830 C   0  0  0  0  0  0  0  0  0  0  0  0
  -15.8210  -43.0900   24.1910 O   0  0  0  0  0  0  0  0  0  0  0  0
  1  2  1  0
  2  3  1  0
  3  4  1  0
  4  5  1  0
  3  6  1  0
  6  7  1  0
  7  8  1  0
  8  9  1  0
  9 10  1  0
 10 11  1  0
 11 12  1  0
 12 13  2  0
 13 14  1  0
 14 15  2  0
 15 16  1  0
 16 17  2  0
 16 18  1  0
 18 19  1  0
 19 20  1  0
 20 21  2  0
 21 22  1  0
 22 23  2  0
 23 24  1  0
 24 25  2  0
 25 26  1  0
 26 27  1  0
 27 28  1  0
 27 29  1  0
 29 30  1  0
 30 31  2  0
 31 32  1  0
 32 33  2  0
 33 34  1  0
 34 35  2  0
 25 36  1  0
 36 37  2  0
 20 38  1  0
 38 39  2  0
 17 12  1  0
 37 22  1  0
 38 15  1  0
 35 30  1  0
M  END
$$$$
