PVTZPAMEGKOLDH-UHFFFAOYSA-N
     RDKit          3D

 31 34  0  0  0  0  0  0  0  0999 V2000
    5.1550    8.3570   -2.0370 C   0  0  0  0  0  0  0  0  0  0  0  0
    4.6880    6.9740   -2.4780 C   0  0  0  0  0  0  0  0  0  0  0  0
    3.2670    6.9200   -3.0710 C   0  0  2  0  0  0  0  0  0  0  0  0
    2.5360    5.7440   -2.4560 C   0  0  0  0  0  0  0  0  0  0  0  0
    2.5120    4.5970   -2.8680 O   0  0  0  0  0  0  0  0  0  0  0  0
    1.8730    6.0790   -1.3310 O   0  0  0  0  0  0  0  0  0  0  0  0
    3.1910    6.8470   -4.6140 C   0  0  1  0  0  0  0  0  0  0  0  0
    2.8900    8.2300   -5.2580 C   0  0  0  0  0  0  0  0  0  0  0  0
    4.2410    8.9220   -5.4800 C   0  0  0  0  0  0  0  0  0  0  0  0
    5.1160    7.7380   -5.7430 C   0  0  0  0  0  0  0  0  0  0  0  0
    6.3630    7.7300   -6.3530 C   0  0  0  0  0  0  0  0  0  0  0  0
    7.0140    6.5060   -6.5200 C   0  0  0  0  0  0  0  0  0  0  0  0
    8.2390    6.3240   -7.1040 O   0  0  0  0  0  0  0  0  0  0  0  0
    8.7850    5.0020   -7.0730 C   0  0  0  0  0  0  0  0  0  0  0  0
   10.2200    5.0520   -7.5970 C   0  0  0  0  0  0  0  0  0  0  0  0
   10.2950    5.5270   -9.0050 C   0  0  0  0  0  0  0  0  0  0  0  0
   10.4120    6.8700   -9.2890 N   0  0  0  0  0  0  0  0  0  0  0  0
   10.4490    6.9240  -10.6080 C   0  0  0  0  0  0  0  0  0  0  0  0
   10.5720    8.0890  -11.4800 C   0  0  0  0  0  0  0  0  0  0  0  0
   10.3170    9.3690  -10.9670 C   0  0  0  0  0  0  0  0  0  0  0  0
   10.4300   10.5040  -11.7750 C   0  0  0  0  0  0  0  0  0  0  0  0
   10.8120   10.3830  -13.1140 C   0  0  0  0  0  0  0  0  0  0  0  0
   10.9030   11.5970  -13.9920 C   0  0  0  0  0  0  0  0  0  0  0  0
   11.0530    9.1090  -13.6390 C   0  0  0  0  0  0  0  0  0  0  0  0
   10.9390    7.9740  -12.8280 C   0  0  0  0  0  0  0  0  0  0  0  0
   10.3640    5.6990  -11.2160 O   0  0  0  0  0  0  0  0  0  0  0  0
   10.2670    4.8100  -10.1830 C   0  0  0  0  0  0  0  0  0  0  0  0
   10.1470    3.3850  -10.5330 C   0  0  0  0  0  0  0  0  0  0  0  0
    6.4010    5.3230   -6.0760 C   0  0  0  0  0  0  0  0  0  0  0  0
    5.1510    5.3430   -5.4500 C   0  0  0  0  0  0  0  0  0  0  0  0
    4.5210    6.5620   -5.2720 C   0  0  0  0  0  0  0  0  0  0  0  0
  1  2  1  0
  3  2  1  6
  3  4  1  0
  4  5  2  0
  4  6  1  0
  3  7  1  0
  7  8  1  6
  8  9  1  0
  9 10  1  0
 10 11  2  0
 11 12  1  0
 12 13  1  0
 13 14  1  0
 14 15  1  0
 15 16  1  0
 16 17  1  0
 17 18  2  0
 18 19  1  0
 19 20  2  0
 20 21  1  0
 21 22  2  0
 22 23  1  0
 22 24  1  0
 24 25  2  0
 18 26  1  0
 26 27  1  0
 27 28  1  0
 12 29  2  0
 29 30  1  0
 30 31  2  0
 31  7  1  0
 31 10  1  0
 27 16  2  0
 25 19  1  0
M  END
$$$$
