MFSFKJAYNZMHEN-QWAKEFERSA-N
     RDKit          3D

 26 29  0  0  0  0  0  0  0  0999 V2000
  -16.2130  -42.0850   23.3830 C   0  0  0  0  0  0  0  0  0  0  0  0
  -15.3300  -43.0770   23.9270 N   0  0  0  0  0  0  0  0  0  0  0  0
  -15.2850  -43.3520   25.2660 C   0  0  0  0  0  0  0  0  0  0  0  0
  -15.9650  -42.7860   26.1110 O   0  0  0  0  0  0  0  0  0  0  0  0
  -14.3620  -44.3610   25.4900 O   0  0  0  0  0  0  0  0  0  0  0  0
  -13.6480  -44.2720   26.6930 C   0  0  0  0  0  0  0  0  0  0  0  0
  -14.0750  -45.0710   27.7580 C   0  0  0  0  0  0  0  0  0  0  0  0
  -13.3650  -45.0640   28.9640 C   0  0  0  0  0  0  0  0  0  0  0  0
  -12.2310  -44.2740   29.0860 C   0  0  0  0  0  0  0  0  0  0  0  0
  -11.8210  -43.4930   27.9980 C   0  0  0  0  0  0  0  0  0  0  0  0
  -12.5040  -43.4860   26.7890 C   0  0  0  0  0  0  0  0  0  0  0  0
  -10.5940  -42.7130   28.3790 C   0  0  2  0  0  0  0  0  0  0  0  0
  -10.8490  -41.2020   28.3360 C   0  0  0  0  0  0  0  0  0  0  0  0
   -9.3480  -43.1100   27.5900 C   0  0  0  0  0  0  0  0  0  0  0  0
   -8.2640  -43.0940   28.6490 C   0  0  0  0  0  0  0  0  0  0  0  0
   -8.9130  -43.7150   29.8020 N   0  0  0  0  0  0  0  0  0  0  0  0
   -8.1820  -43.4620   31.0340 C   0  0  0  0  0  0  0  0  0  0  0  0
  -10.3030  -43.2150   29.8470 C   0  0  2  0  0  0  0  0  0  0  0  0
  -11.3990  -44.1290   30.1740 N   0  0  0  0  0  0  0  0  0  0  0  0
  -11.5610  -44.7140   31.4830 C   0  0  0  0  0  0  0  0  0  0  0  0
  -12.4770  -43.8890   32.3630 C   0  0  0  0  0  0  0  0  0  0  0  0
  -13.8310  -44.2260   32.5120 C   0  0  0  0  0  0  0  0  0  0  0  0
  -14.6670  -43.4730   33.3370 C   0  0  0  0  0  0  0  0  0  0  0  0
  -14.1580  -42.3780   34.0320 C   0  0  0  0  0  0  0  0  0  0  0  0
  -12.8130  -42.0370   33.9020 C   0  0  0  0  0  0  0  0  0  0  0  0
  -11.9760  -42.7900   33.0760 C   0  0  0  0  0  0  0  0  0  0  0  0
  1  2  1  0
  2  3  1  0
  3  4  2  0
  3  5  1  0
  5  6  1  0
  6  7  2  0
  7  8  1  0
  8  9  2  0
  9 10  1  0
 10 11  2  0
 10 12  1  0
 12 13  1  1
 12 14  1  0
 14 15  1  0
 15 16  1  0
 16 17  1  0
 18 16  1  6
 18 19  1  0
 19 20  1  0
 20 21  1  0
 21 22  2  0
 22 23  1  0
 23 24  2  0
 24 25  1  0
 25 26  2  0
 11  6  1  0
 18 12  1  0
 26 21  1  0
 19  9  1  0
M  END
$$$$
