MFZFTIAUXVYCFV-UHFFFAOYSA-N
     RDKit          3D

 39 43  0  0  0  0  0  0  0  0999 V2000
  132.2600  116.4430   42.5140 C   0  0  0  0  0  0  0  0  0  0  0  0
  133.0830  116.8330   41.3220 C   0  0  0  0  0  0  0  0  0  0  0  0
  133.4070  118.1120   41.0560 C   0  0  0  0  0  0  0  0  0  0  0  0
  134.2210  118.5230   39.8470 C   0  0  1  0  0  0  0  0  0  0  0  0
  135.6940  118.7330   40.2220 C   0  0  0  0  0  0  0  0  0  0  0  0
  136.4710  117.4460   40.3950 C   0  0  0  0  0  0  0  0  0  0  0  0
  137.6870  117.5850   40.9780 N   0  0  0  0  0  0  0  0  0  0  0  0
  138.4460  116.4980   41.1630 C   0  0  0  0  0  0  0  0  0  0  0  0
  139.6780  116.6680   41.7770 C   0  0  0  0  0  0  0  0  0  0  0  0
  140.5280  115.5900   42.0060 C   0  0  0  0  0  0  0  0  0  0  0  0
  142.0500  115.8430   42.7710 Cl  0  0  0  0  0  0  0  0  0  0  0  0
  140.1580  114.3120   41.6170 C   0  0  0  0  0  0  0  0  0  0  0  0
  138.9240  114.1210   40.9970 C   0  0  0  0  0  0  0  0  0  0  0  0
  138.0470  115.2080   40.7600 C   0  0  0  0  0  0  0  0  0  0  0  0
  136.7790  115.0770   40.1300 C   0  0  0  0  0  0  0  0  0  0  0  0
  136.3350  113.8260   39.6610 N   0  0  0  0  0  0  0  0  0  0  0  0
  135.6500  112.9860   40.6370 C   0  0  0  0  0  0  0  0  0  0  0  0
  136.0080  111.5140   40.4210 C   0  0  0  0  0  0  0  0  0  0  0  0
  135.6810  110.6440   41.6380 C   0  0  0  0  0  0  0  0  0  0  0  0
  136.9380  109.9800   42.2040 C   0  0  0  0  0  0  0  0  0  0  0  0
  137.4160  108.8460   41.2940 C   0  0  0  0  0  0  0  0  0  0  0  0
  137.9080  107.6140   42.0580 C   0  0  0  0  0  0  0  0  0  0  0  0
  138.4950  106.5280   41.1510 C   0  0  0  0  0  0  0  0  0  0  0  0
  139.9670  106.2270   41.4500 C   0  0  0  0  0  0  0  0  0  0  0  0
  140.8980  106.5250   40.2770 C   0  0  0  0  0  0  0  0  0  0  0  0
  140.3730  107.5830   39.4400 N   0  0  0  0  0  0  0  0  0  0  0  0
  140.8320  108.8750   39.5080 C   0  0  0  0  0  0  0  0  0  0  0  0
  141.7090  109.2290   40.2930 O   0  0  0  0  0  0  0  0  0  0  0  0
  140.1950  109.8370   38.5600 C   0  0  0  0  0  0  0  0  0  0  0  0
  139.7160  110.9940   39.0570 C   0  0  0  0  0  0  0  0  0  0  0  0
  139.0890  111.9830   38.2090 C   0  0  0  0  0  0  0  0  0  0  0  0
  138.9750  111.7570   36.8960 C   0  0  0  0  0  0  0  0  0  0  0  0
  139.4500  110.5910   36.3570 N   0  0  0  0  0  0  0  0  0  0  0  0
  140.0610  109.5950   37.0900 C   0  0  0  0  0  0  0  0  0  0  0  0
  140.4690  108.5690   36.5480 O   0  0  0  0  0  0  0  0  0  0  0  0
  135.9760  116.2180   39.9410 C   0  0  0  0  0  0  0  0  0  0  0  0
  134.5730  116.1220   39.3520 C   0  0  1  0  0  0  0  0  0  0  0  0
  133.5450  115.6980   40.4290 C   0  0  0  0  0  0  0  0  0  0  0  0
  134.1430  117.4640   38.7450 C   0  0  0  0  0  0  0  0  0  0  0  0
  1  2  1  0
  2  3  2  0
  3  4  1  0
  4  5  1  1
  5  6  1  0
  6  7  2  0
  7  8  1  0
  8  9  2  0
  9 10  1  0
 10 11  1  0
 10 12  2  0
 12 13  1  0
 13 14  2  0
 14 15  1  0
 15 16  1  0
 16 17  1  0
 17 18  1  0
 18 19  1  0
 19 20  1  0
 20 21  1  0
 21 22  1  0
 22 23  1  0
 23 24  1  0
 24 25  1  0
 25 26  1  0
 26 27  1  0
 27 28  2  0
 27 29  1  0
 29 30  2  0
 30 31  1  0
 31 32  2  0
 32 33  1  0
 33 34  1  0
 34 35  2  0
 15 36  2  0
 36 37  1  0
 37 38  1  1
 37 39  1  0
 38  2  1  0
 39  4  1  0
 36  6  1  0
 14  8  1  0
 34 29  1  0
M  END
$$$$
