NIDDHYAQKFHAMY-GZTJUZNOSA-N
     RDKit          3D

 21 22  0  0  0  0  0  0  0  0999 V2000
    1.8730    7.0110    0.6100 O   0  0  0  0  0  0  0  0  0  0  0  0
    2.4730    7.7500   -0.1540 C   0  0  0  0  0  0  0  0  0  0  0  0
    2.2420    9.0820   -0.1080 O   0  0  0  0  0  0  0  0  0  0  0  0
    3.5200    7.3710   -1.1970 C   0  0  2  0  0  0  0  0  0  0  0  0
    3.3070    8.2350   -2.4470 C   0  0  0  0  0  0  0  0  0  0  0  0
    4.5770    8.9350   -2.8760 C   0  0  0  0  0  0  0  0  0  0  0  0
    4.7110    9.4200   -4.1840 C   0  0  0  0  0  0  0  0  0  0  0  0
    5.8720   10.0910   -4.5720 C   0  0  0  0  0  0  0  0  0  0  0  0
    6.9050   10.2860   -3.6580 C   0  0  0  0  0  0  0  0  0  0  0  0
    6.7790    9.8120   -2.3540 C   0  0  0  0  0  0  0  0  0  0  0  0
    5.6200    9.1400   -1.9640 C   0  0  0  0  0  0  0  0  0  0  0  0
    3.3550    5.9910   -1.5730 O   0  0  0  0  0  0  0  0  0  0  0  0
    4.5540    5.3840   -1.8180 C   0  0  0  0  0  0  0  0  0  0  0  0
    5.1980    4.6520   -0.8210 C   0  0  0  0  0  0  0  0  0  0  0  0
    6.4410    4.0710   -1.0830 C   0  0  0  0  0  0  0  0  0  0  0  0
    7.0360    4.2430   -2.3380 C   0  0  0  0  0  0  0  0  0  0  0  0
    8.3480    3.6190   -2.5890 C   0  0  0  0  0  0  0  0  0  0  0  0
    9.4630    4.2110   -2.2940 N   0  0  0  0  0  0  0  0  0  0  0  0
   10.5270    3.3730   -2.6500 O   0  0  0  0  0  0  0  0  0  0  0  0
    6.3960    4.9990   -3.3260 C   0  0  0  0  0  0  0  0  0  0  0  0
    5.1540    5.5780   -3.0610 C   0  0  0  0  0  0  0  0  0  0  0  0
  1  2  2  0
  2  3  1  0
  2  4  1  0
  4  5  1  6
  5  6  1  0
  6  7  2  0
  7  8  1  0
  8  9  2  0
  9 10  1  0
 10 11  2  0
  4 12  1  0
 12 13  1  0
 13 14  2  0
 14 15  1  0
 15 16  2  0
 16 17  1  0
 17 18  2  0
 18 19  1  0
 16 20  1  0
 20 21  2  0
 11  6  1  0
 21 13  1  0
M  END
$$$$
