DBPSKVDGBPKVFF-YCRPNKLZSA-N
     RDKit          3D

 28 32  0  0  0  0  0  0  0  0999 V2000
   -3.9440   24.3360  -30.9630 C   0  0  0  0  0  0  0  0  0  0  0  0
   -4.4110   25.7470  -31.1730 C   0  0  0  0  0  0  0  0  0  0  0  0
   -3.9440   26.6580  -30.2750 N   0  0  0  0  0  0  0  0  0  0  0  0
   -4.3190   27.9520  -30.3750 C   0  0  0  0  0  0  0  0  0  0  0  0
   -3.8230   28.8770  -29.4560 N   0  0  0  0  0  0  0  0  0  0  0  0
   -3.7560   28.4130  -28.0730 C   0  0  0  0  0  0  0  0  0  0  0  0
   -2.7620   29.2760  -27.3000 C   0  0  0  0  0  0  0  0  0  0  0  0
   -3.1020   30.7760  -27.3960 C   0  0  1  0  0  0  0  0  0  0  0  0
   -2.0370   31.6140  -26.6660 C   0  0  0  0  0  0  0  0  0  0  0  0
   -0.7150   31.7050  -27.4320 C   0  0  0  0  0  0  0  0  0  0  0  0
   -0.9560   32.1160  -28.8120 N   0  0  0  0  0  0  0  0  0  0  0  0
    0.1700   32.5510  -29.5190 C   0  0  0  0  0  0  0  0  0  0  0  0
    0.2150   33.8310  -29.9810 N   0  0  0  0  0  0  0  0  0  0  0  0
    1.2920   34.2460  -30.6770 C   0  0  0  0  0  0  0  0  0  0  0  0
    2.3980   33.5530  -30.9860 N   0  0  0  0  0  0  0  0  0  0  0  0
    2.3410   32.3110  -30.4860 C   0  0  0  0  0  0  0  0  0  0  0  0
    3.3360   31.3810  -30.6190 N   0  0  0  0  0  0  0  0  0  0  0  0
    2.9830   30.2260  -29.9690 C   0  0  0  0  0  0  0  0  0  0  0  0
    1.7340   30.4250  -29.4170 C   0  0  0  0  0  0  0  0  0  0  0  0
    1.3040   31.7430  -29.7600 C   0  0  0  0  0  0  0  0  0  0  0  0
   -1.9000   31.2970  -29.5840 C   0  0  0  0  0  0  0  0  0  0  0  0
   -3.2730   31.2380  -28.8720 C   0  0  2  0  0  0  0  0  0  0  0  0
   -3.9260   32.6420  -28.9200 C   0  0  0  0  0  0  0  0  0  0  0  0
   -4.2080   30.2760  -29.6450 C   0  0  0  0  0  0  0  0  0  0  0  0
   -5.1620   28.3620  -31.4070 C   0  0  0  0  0  0  0  0  0  0  0  0
   -5.6390   27.4330  -32.3310 C   0  0  0  0  0  0  0  0  0  0  0  0
   -5.2620   26.1010  -32.2150 C   0  0  0  0  0  0  0  0  0  0  0  0
   -5.9230   24.8600  -33.4820 Br  0  0  0  0  0  0  0  0  0  0  0  0
  1  2  1  0
  2  3  2  0
  3  4  1  0
  4  5  1  0
  5  6  1  0
  6  7  1  0
  8  7  1  6
  8  9  1  0
  9 10  1  0
 10 11  1  0
 11 12  1  0
 12 13  2  0
 13 14  1  0
 14 15  2  0
 15 16  1  0
 16 17  1  0
 17 18  1  0
 18 19  2  0
 19 20  1  0
 11 21  1  0
 21 22  1  0
 22 23  1  1
 22 24  1  0
  4 25  2  0
 25 26  1  0
 26 27  2  0
 27 28  1  0
 27  2  1  0
 24  5  1  0
 22  8  1  0
 20 12  1  0
 20 16  2  0
M  END
$$$$
