CDNDTAMGJSUNJL-UHFFFAOYSA-N
     RDKit          3D

 22 24  0  0  0  0  0  0  0  0999 V2000
    5.5980  -22.8460   18.8460 N   0  0  0  0  0  0  0  0  0  0  0  0
    4.8850  -21.8120   19.5950 C   0  0  0  0  0  0  0  0  0  0  0  0
    4.0440  -22.4100   20.7260 C   0  0  0  0  0  0  0  0  0  0  0  0
    4.8590  -23.1550   21.6670 N   0  0  0  0  0  0  0  0  0  0  0  0
    5.8250  -22.6460   22.5120 C   0  0  0  0  0  0  0  0  0  0  0  0
    6.2160  -21.1990   22.5880 C   0  0  0  0  0  0  0  0  0  0  0  0
    7.6490  -20.9310   22.1790 C   0  0  0  0  0  0  0  0  0  0  0  0
    8.4130  -19.9680   22.8560 C   0  0  0  0  0  0  0  0  0  0  0  0
    9.7390  -19.7310   22.4910 C   0  0  0  0  0  0  0  0  0  0  0  0
   10.3200  -20.4570   21.4530 C   0  0  0  0  0  0  0  0  0  0  0  0
    9.5760  -21.4240   20.7810 C   0  0  0  0  0  0  0  0  0  0  0  0
    8.2500  -21.6640   21.1450 C   0  0  0  0  0  0  0  0  0  0  0  0
    6.3450  -23.6070   23.2540 N   0  0  0  0  0  0  0  0  0  0  0  0
    5.7190  -24.7630   22.8710 C   0  0  0  0  0  0  0  0  0  0  0  0
    5.9090  -26.0680   23.3490 C   0  0  0  0  0  0  0  0  0  0  0  0
    5.1410  -27.1040   22.7960 C   0  0  0  0  0  0  0  0  0  0  0  0
    5.2830  -28.5150   23.2480 C   0  0  0  0  0  0  0  0  0  0  0  0
    6.3420  -28.8260   24.0520 N   0  0  0  0  0  0  0  0  0  0  0  0
    4.4940  -29.3820   22.8940 O   0  0  0  0  0  0  0  0  0  0  0  0
    4.1910  -26.8250   21.8020 C   0  0  0  0  0  0  0  0  0  0  0  0
    3.9900  -25.5270   21.3180 C   0  0  0  0  0  0  0  0  0  0  0  0
    4.7800  -24.5160   21.8770 C   0  0  0  0  0  0  0  0  0  0  0  0
  1  2  1  0
  2  3  1  0
  3  4  1  0
  4  5  1  0
  5  6  1  0
  6  7  1  0
  7  8  2  0
  8  9  1  0
  9 10  2  0
 10 11  1  0
 11 12  2  0
  5 13  2  0
 13 14  1  0
 14 15  2  0
 15 16  1  0
 16 17  1  0
 17 18  1  0
 17 19  2  0
 16 20  2  0
 20 21  1  0
 21 22  2  0
 22  4  1  0
 12  7  1  0
 22 14  1  0
M  END
$$$$
