ZEJKPIWHZAIROY-UHFFFAOYSA-N
     RDKit          3D

 20 22  0  0  0  0  0  0  0  0999 V2000
   -4.8550   14.9450   20.5950 C   0  0  0  0  0  0  0  0  0  0  0  0
   -4.5870   14.9700   22.0710 C   0  0  0  0  0  0  0  0  0  0  0  0
   -4.8460   16.1210   22.8200 C   0  0  0  0  0  0  0  0  0  0  0  0
   -4.5640   16.1480   24.1840 C   0  0  0  0  0  0  0  0  0  0  0  0
   -4.0100   15.0250   24.8070 C   0  0  0  0  0  0  0  0  0  0  0  0
   -3.7460   15.0890   26.1550 O   0  0  0  0  0  0  0  0  0  0  0  0
   -3.7220   13.8520   24.0810 C   0  0  0  0  0  0  0  0  0  0  0  0
   -3.1320   12.6490   24.6980 C   0  0  0  0  0  0  0  0  0  0  0  0
   -3.6100   11.7740   25.6620 C   0  0  0  0  0  0  0  0  0  0  0  0
   -2.6320   10.7680   25.9000 C   0  0  0  0  0  0  0  0  0  0  0  0
   -2.5640    9.6470   26.7490 C   0  0  0  0  0  0  0  0  0  0  0  0
   -1.4160    8.8420   26.7190 C   0  0  0  0  0  0  0  0  0  0  0  0
   -1.3340    7.6600   27.6160 C   0  0  0  0  0  0  0  0  0  0  0  0
   -0.6960    6.5830   27.2820 N   0  0  0  0  0  0  0  0  0  0  0  0
   -1.9300    7.6830   28.8330 N   0  0  0  0  0  0  0  0  0  0  0  0
   -0.3490    9.1430   25.8690 C   0  0  0  0  0  0  0  0  0  0  0  0
   -0.4010   10.2550   25.0210 C   0  0  0  0  0  0  0  0  0  0  0  0
   -1.5550   11.0440   25.0620 C   0  0  0  0  0  0  0  0  0  0  0  0
   -1.8820   12.1760   24.3570 N   0  0  0  0  0  0  0  0  0  0  0  0
   -4.0170   13.8540   22.7060 C   0  0  0  0  0  0  0  0  0  0  0  0
  1  2  1  0
  2  3  2  0
  3  4  1  0
  4  5  2  0
  5  6  1  0
  5  7  1  0
  7  8  1  0
  8  9  2  0
  9 10  1  0
 10 11  2  0
 11 12  1  0
 12 13  1  0
 13 14  2  0
 13 15  1  0
 12 16  2  0
 16 17  1  0
 17 18  2  0
 18 19  1  0
  7 20  2  0
 20  2  1  0
 19  8  1  0
 18 10  1  0
M  END
$$$$
