WELYXMQWLDVBEU-UHFFFAOYSA-N
     RDKit          3D

 22 24  0  0  0  0  0  0  0  0999 V2000
  131.6200  114.4160   43.4510 C   0  0  0  0  0  0  0  0  0  0  0  0
  131.3870  113.6490   42.5560 C   0  0  0  0  0  0  0  0  0  0  0  0
  131.1020  112.7120   41.4620 C   0  0  0  0  0  0  0  0  0  0  0  0
  132.3100  112.3750   40.7040 N   0  0  0  0  0  0  0  0  0  0  0  0
  132.2840  112.9830   39.3520 C   0  0  0  0  0  0  0  0  0  0  0  0
  133.5290  113.8590   39.1330 C   0  0  0  0  0  0  0  0  0  0  0  0
  133.9940  114.0300   38.0110 O   0  0  0  0  0  0  0  0  0  0  0  0
  134.0390  114.3440   40.3240 N   0  0  0  0  0  0  0  0  0  0  0  0
  135.1770  115.1410   40.5300 C   0  0  0  0  0  0  0  0  0  0  0  0
  135.1600  116.5380   40.5260 C   0  0  0  0  0  0  0  0  0  0  0  0
  136.3370  117.2670   40.7400 C   0  0  0  0  0  0  0  0  0  0  0  0
  137.5500  116.6170   40.9590 C   0  0  0  0  0  0  0  0  0  0  0  0
  138.7070  117.3940   41.1720 N   0  0  0  0  0  0  0  0  0  0  0  0
  139.8040  116.7440   41.3550 C   0  0  0  0  0  0  0  0  0  0  0  0
  139.9170  115.3700   41.3650 N   0  0  0  0  0  0  0  0  0  0  0  0
  138.8480  114.5260   41.1940 C   0  0  0  0  0  0  0  0  0  0  0  0
  138.9190  113.3030   41.2320 O   0  0  0  0  0  0  0  0  0  0  0  0
  137.5600  115.2160   40.9610 C   0  0  0  0  0  0  0  0  0  0  0  0
  136.3880  114.4790   40.7490 C   0  0  0  0  0  0  0  0  0  0  0  0
  141.2690  114.9520   41.6210 C   0  0  0  0  0  0  0  0  0  0  0  0
  142.0890  116.1920   41.3000 C   0  0  0  0  0  0  0  0  0  0  0  0
  141.1480  117.3520   41.6140 C   0  0  0  0  0  0  0  0  0  0  0  0
  1  2  3  0
  2  3  1  0
  3  4  1  0
  4  5  1  0
  5  6  1  0
  6  7  2  0
  6  8  1  0
  8  9  1  0
  9 10  2  0
 10 11  1  0
 11 12  2  0
 12 13  1  0
 13 14  2  0
 14 15  1  0
 15 16  1  0
 16 17  2  0
 16 18  1  0
 18 19  2  0
 15 20  1  0
 20 21  1  0
 21 22  1  0
 19  9  1  0
 18 12  1  0
 22 14  1  0
M  END
$$$$
