XUOPAPBJOVSLAY-UHFFFAOYSA-N
     RDKit          3D

 31 34  0  0  0  0  0  0  0  0999 V2000
    3.8660    4.3030   -1.1150 C   0  0  0  0  0  0  0  0  0  0  0  0
    3.0720    5.4830   -0.9910 O   0  0  0  0  0  0  0  0  0  0  0  0
    2.8040    6.1010   -2.1660 C   0  0  0  0  0  0  0  0  0  0  0  0
    1.8990    5.8060   -2.9340 O   0  0  0  0  0  0  0  0  0  0  0  0
    3.8140    7.1390   -2.4520 C   0  0  0  0  0  0  0  0  0  0  0  0
    4.1910    7.2640   -3.7350 C   0  0  0  0  0  0  0  0  0  0  0  0
    5.2030    8.2360   -4.1110 C   0  0  0  0  0  0  0  0  0  0  0  0
    5.6190    8.4080   -5.4290 C   0  0  0  0  0  0  0  0  0  0  0  0
    6.6100    9.3500   -5.7290 C   0  0  0  0  0  0  0  0  0  0  0  0
    7.1960   10.1230   -4.7200 C   0  0  0  0  0  0  0  0  0  0  0  0
    8.1480   11.0010   -5.1580 O   0  0  0  0  0  0  0  0  0  0  0  0
    9.3830   11.0410   -4.4350 C   0  0  0  0  0  0  0  0  0  0  0  0
   10.3550   11.9610   -5.1720 C   0  0  0  0  0  0  0  0  0  0  0  0
   10.2820   11.7920   -6.6480 C   0  0  0  0  0  0  0  0  0  0  0  0
   10.4440   10.5500   -7.2240 N   0  0  0  0  0  0  0  0  0  0  0  0
   10.3130   10.7710   -8.5200 C   0  0  0  0  0  0  0  0  0  0  0  0
   10.3860    9.8240   -9.6290 C   0  0  0  0  0  0  0  0  0  0  0  0
   10.6460   10.2380  -10.9440 C   0  0  0  0  0  0  0  0  0  0  0  0
   10.7110    9.3090  -11.9870 C   0  0  0  0  0  0  0  0  0  0  0  0
   10.5080    7.9470  -11.7400 C   0  0  0  0  0  0  0  0  0  0  0  0
   10.6100    6.9480  -12.8530 C   0  0  0  0  0  0  0  0  0  0  0  0
   10.2630    7.5260  -10.4280 C   0  0  0  0  0  0  0  0  0  0  0  0
   10.1990    8.4570   -9.3870 C   0  0  0  0  0  0  0  0  0  0  0  0
   10.0720   12.0830   -8.8380 O   0  0  0  0  0  0  0  0  0  0  0  0
   10.0550   12.7280   -7.6330 C   0  0  0  0  0  0  0  0  0  0  0  0
    9.8000   14.1780   -7.6530 C   0  0  0  0  0  0  0  0  0  0  0  0
    6.7810    9.9550   -3.4010 C   0  0  0  0  0  0  0  0  0  0  0  0
    5.7900    9.0120   -3.1180 C   0  0  0  0  0  0  0  0  0  0  0  0
    5.3890    8.8780   -1.7750 O   0  0  0  0  0  0  0  0  0  0  0  0
    4.3760    8.0000   -1.3910 C   0  0  0  0  0  0  0  0  0  0  0  0
    3.9750    7.9840   -0.2340 O   0  0  0  0  0  0  0  0  0  0  0  0
  1  2  1  0
  2  3  1  0
  3  4  2  0
  3  5  1  0
  5  6  2  0
  6  7  1  0
  7  8  2  0
  8  9  1  0
  9 10  2  0
 10 11  1  0
 11 12  1  0
 12 13  1  0
 13 14  1  0
 14 15  1  0
 15 16  2  0
 16 17  1  0
 17 18  2  0
 18 19  1  0
 19 20  2  0
 20 21  1  0
 20 22  1  0
 22 23  2  0
 16 24  1  0
 24 25  1  0
 25 26  1  0
 10 27  1  0
 27 28  2  0
 28 29  1  0
 29 30  1  0
 30 31  2  0
 30  5  1  0
 28  7  1  0
 25 14  2  0
 23 17  1  0
M  END
$$$$
