PRXIEXWZIFEMSH-UHFFFAOYSA-N
     RDKit          3D

 29 32  0  0  0  0  0  0  0  0999 V2000
  -19.7360  -40.5440   20.8460 O   0  0  0  0  0  0  0  0  0  0  0  0
  -20.1320  -41.5040   21.5220 N   0  0  0  0  0  0  0  0  0  0  0  0
  -21.0400  -42.2780   21.1910 O   0  0  0  0  0  0  0  0  0  0  0  0
  -19.4730  -41.7390   22.8160 C   0  0  0  0  0  0  0  0  0  0  0  0
  -20.2070  -41.5960   23.9980 C   0  0  0  0  0  0  0  0  0  0  0  0
  -19.5870  -41.8040   25.2360 C   0  0  0  0  0  0  0  0  0  0  0  0
  -18.2240  -42.1650   25.2890 C   0  0  0  0  0  0  0  0  0  0  0  0
  -17.4950  -42.4030   26.4410 N   0  0  0  0  0  0  0  0  0  0  0  0
  -16.2760  -42.7910   26.1420 C   0  0  0  0  0  0  0  0  0  0  0  0
  -15.3390  -43.1760   27.0320 N   0  0  0  0  0  0  0  0  0  0  0  0
  -14.0190  -43.6100   26.6130 C   0  0  0  0  0  0  0  0  0  0  0  0
  -13.7970  -45.1060   26.8940 C   0  0  0  0  0  0  0  0  0  0  0  0
  -12.9000  -45.3810   28.0800 C   0  0  0  0  0  0  0  0  0  0  0  0
  -11.5650  -45.7460   27.8980 C   0  0  0  0  0  0  0  0  0  0  0  0
  -10.7970  -46.1170   28.9950 C   0  0  0  0  0  0  0  0  0  0  0  0
  -11.3220  -46.1050   30.2420 N   0  0  0  0  0  0  0  0  0  0  0  0
  -10.4980  -46.5610   31.3850 C   0  0  0  0  0  0  0  0  0  0  0  0
   -9.4430  -45.5360   31.7230 C   0  0  0  0  0  0  0  0  0  0  0  0
   -9.8030  -44.2740   32.2290 C   0  0  0  0  0  0  0  0  0  0  0  0
   -8.8240  -43.3360   32.5530 C   0  0  0  0  0  0  0  0  0  0  0  0
   -7.4840  -43.6510   32.3710 C   0  0  0  0  0  0  0  0  0  0  0  0
   -6.5460  -42.7550   32.6980 F   0  0  0  0  0  0  0  0  0  0  0  0
   -7.1030  -44.8890   31.8700 C   0  0  0  0  0  0  0  0  0  0  0  0
   -8.0800  -45.8330   31.5440 C   0  0  0  0  0  0  0  0  0  0  0  0
  -12.5980  -45.7070   30.4460 C   0  0  0  0  0  0  0  0  0  0  0  0
  -13.4090  -45.3430   29.3780 C   0  0  0  0  0  0  0  0  0  0  0  0
  -15.9000  -42.7660   24.4630 S   0  0  0  0  0  0  0  0  0  0  0  0
  -17.5170  -42.3070   24.0950 C   0  0  0  0  0  0  0  0  0  0  0  0
  -18.1140  -42.0940   22.8380 C   0  0  0  0  0  0  0  0  0  0  0  0
  1  2  2  0
  2  3  1  0
  2  4  1  0
  4  5  2  0
  5  6  1  0
  6  7  2  0
  7  8  1  0
  8  9  2  0
  9 10  1  0
 10 11  1  0
 11 12  1  0
 12 13  1  0
 13 14  2  0
 14 15  1  0
 15 16  2  0
 16 17  1  0
 17 18  1  0
 18 19  2  0
 19 20  1  0
 20 21  2  0
 21 22  1  0
 21 23  1  0
 23 24  2  0
 16 25  1  0
 25 26  2  0
  9 27  1  0
 27 28  1  0
 28 29  2  0
 29  4  1  0
 28  7  1  0
 26 13  1  0
 24 18  1  0
M  CHG  3   2   1   3  -1  16   1
M  END
$$$$
