MVFQHVQABARLKS-UHFFFAOYSA-N
     RDKit          3D

 25 28  0  0  0  0  0  0  0  0999 V2000
   54.8770    0.9910  -46.6090 N   0  0  0  0  0  0  0  0  0  0  0  0
   54.3470    0.6550  -45.3880 C   0  0  0  0  0  0  0  0  0  0  0  0
   55.1620    0.8030  -44.3210 N   0  0  0  0  0  0  0  0  0  0  0  0
   54.6830    0.5270  -43.0930 C   0  0  0  0  0  0  0  0  0  0  0  0
   53.4490    0.1130  -42.7640 N   0  0  0  0  0  0  0  0  0  0  0  0
   52.6770   -0.0300  -43.8550 C   0  0  0  0  0  0  0  0  0  0  0  0
   53.0400    0.1980  -45.1720 C   0  0  0  0  0  0  0  0  0  0  0  0
   51.8690   -0.1190  -45.9260 C   0  0  0  0  0  0  0  0  0  0  0  0
   51.6780   -0.0950  -47.3730 C   0  0  0  0  0  0  0  0  0  0  0  0
   50.5870   -0.7720  -47.9440 C   0  0  0  0  0  0  0  0  0  0  0  0
   50.3940   -0.7660  -49.3280 C   0  0  0  0  0  0  0  0  0  0  0  0
   51.2930   -0.0880  -50.1470 C   0  0  0  0  0  0  0  0  0  0  0  0
   51.0510   -0.0770  -51.8540 Cl  0  0  0  0  0  0  0  0  0  0  0  0
   52.3850    0.5740  -49.5830 C   0  0  0  0  0  0  0  0  0  0  0  0
   53.2970    1.2530  -50.3460 O   0  0  0  0  0  0  0  0  0  0  0  0
   52.5860    0.5690  -48.2040 C   0  0  0  0  0  0  0  0  0  0  0  0
   50.8470   -0.4740  -45.1260 N   0  0  0  0  0  0  0  0  0  0  0  0
   51.3680   -0.4150  -43.8850 N   0  0  0  0  0  0  0  0  0  0  0  0
   50.5410   -0.7520  -42.7420 C   0  0  0  0  0  0  0  0  0  0  0  0
   50.6850   -2.2150  -42.2830 C   0  0  2  0  0  0  0  0  0  0  0  0
   49.9060   -3.1540  -43.2190 C   0  0  0  0  0  0  0  0  0  0  0  0
   48.3970   -3.0630  -42.9880 C   0  0  0  0  0  0  0  0  0  0  0  0
   48.0480   -3.2370  -41.5120 C   0  0  0  0  0  0  0  0  0  0  0  0
   48.7840   -2.3150  -40.6500 N   0  0  0  0  0  0  0  0  0  0  0  0
   50.2290   -2.4510  -40.8310 C   0  0  0  0  0  0  0  0  0  0  0  0
  1  2  1  0
  2  3  2  0
  3  4  1  0
  4  5  2  0
  5  6  1  0
  6  7  2  0
  7  8  1  0
  8  9  1  0
  9 10  2  0
 10 11  1  0
 11 12  2  0
 12 13  1  0
 12 14  1  0
 14 15  1  0
 14 16  2  0
  8 17  2  0
 17 18  1  0
 18 19  1  0
 20 19  1  6
 20 21  1  0
 21 22  1  0
 22 23  1  0
 23 24  1  0
 24 25  1  0
  7  2  1  0
 16  9  1  0
 25 20  1  0
 18  6  1  0
M  END
$$$$
