DRUZWKULMZFMLK-UHFFFAOYSA-N
     RDKit          3D

 37 40  0  0  0  0  0  0  0  0999 V2000
   -4.3530   12.8160   25.5650 C   0  0  0  0  0  0  0  0  0  0  0  0
   -3.0480   13.0200   25.0350 O   0  0  0  0  0  0  0  0  0  0  0  0
   -2.7430   12.3320   23.8860 C   0  0  0  0  0  0  0  0  0  0  0  0
   -3.3380   12.5960   22.6450 C   0  0  0  0  0  0  0  0  0  0  0  0
   -2.9650   11.8740   21.4980 C   0  0  0  0  0  0  0  0  0  0  0  0
   -3.5580   12.1850   20.1290 C   0  0  2  0  0  0  0  0  0  0  0  0
   -3.5070   13.6490   19.9420 N   0  0  0  0  0  0  0  0  0  0  0  0
   -2.8760   14.2970   18.8960 C   0  0  0  0  0  0  0  0  0  0  0  0
   -2.5650   13.6830   17.6770 C   0  0  0  0  0  0  0  0  0  0  0  0
   -1.9570   14.3990   16.6370 C   0  0  0  0  0  0  0  0  0  0  0  0
   -1.6600   15.7520   16.8010 C   0  0  0  0  0  0  0  0  0  0  0  0
   -1.0210   16.5140   15.6980 C   0  0  0  0  0  0  0  0  0  0  0  0
   -1.2540   17.7730   15.5030 N   0  0  0  0  0  0  0  0  0  0  0  0
   -0.1660   15.8980   14.8450 N   0  0  0  0  0  0  0  0  0  0  0  0
   -1.9800   16.3880   18.0000 C   0  0  0  0  0  0  0  0  0  0  0  0
   -2.5880   15.6620   19.0310 C   0  0  0  0  0  0  0  0  0  0  0  0
   -4.9970   11.6180   19.9760 C   0  0  0  0  0  0  0  0  0  0  0  0
   -5.9220   12.2700   19.4940 O   0  0  0  0  0  0  0  0  0  0  0  0
   -5.1380   10.3080   20.3840 N   0  0  0  0  0  0  0  0  0  0  0  0
   -6.3590    9.5620   20.2380 C   0  0  0  0  0  0  0  0  0  0  0  0
   -6.0970    8.2320   19.5800 C   0  0  0  0  0  0  0  0  0  0  0  0
   -4.8510    7.9480   19.0030 C   0  0  0  0  0  0  0  0  0  0  0  0
   -4.6230    6.7160   18.3860 C   0  0  0  0  0  0  0  0  0  0  0  0
   -5.6350    5.7610   18.3330 C   0  0  0  0  0  0  0  0  0  0  0  0
   -6.8810    6.0380   18.8920 C   0  0  0  0  0  0  0  0  0  0  0  0
   -7.1130    7.2700   19.5070 C   0  0  0  0  0  0  0  0  0  0  0  0
   -1.9650   10.8980   21.6160 C   0  0  0  0  0  0  0  0  0  0  0  0
   -1.3600   10.6380   22.8500 C   0  0  0  0  0  0  0  0  0  0  0  0
   -1.7400   11.3510   23.9900 C   0  0  0  0  0  0  0  0  0  0  0  0
   -1.2040   11.1700   25.2390 O   0  0  0  0  0  0  0  0  0  0  0  0
   -0.4250    9.9980   25.4690 C   0  0  0  0  0  0  0  0  0  0  0  0
   -1.1010    9.1360   26.5100 C   0  0  0  0  0  0  0  0  0  0  0  0
   -2.3270    9.5270   27.0680 C   0  0  0  0  0  0  0  0  0  0  0  0
   -2.9710    8.7160   28.0050 C   0  0  0  0  0  0  0  0  0  0  0  0
   -2.4030    7.5030   28.3860 C   0  0  0  0  0  0  0  0  0  0  0  0
   -1.1910    7.0980   27.8310 C   0  0  0  0  0  0  0  0  0  0  0  0
   -0.5450    7.9070   26.8950 C   0  0  0  0  0  0  0  0  0  0  0  0
  1  2  1  0
  2  3  1  0
  3  4  2  0
  4  5  1  0
  5  6  1  0
  6  7  1  1
  7  8  1  0
  8  9  2  0
  9 10  1  0
 10 11  2  0
 11 12  1  0
 12 13  2  0
 12 14  1  0
 11 15  1  0
 15 16  2  0
  6 17  1  0
 17 18  2  0
 17 19  1  0
 19 20  1  0
 20 21  1  0
 21 22  2  0
 22 23  1  0
 23 24  2  0
 24 25  1  0
 25 26  2  0
  5 27  2  0
 27 28  1  0
 28 29  2  0
 29 30  1  0
 30 31  1  0
 31 32  1  0
 32 33  2  0
 33 34  1  0
 34 35  2  0
 35 36  1  0
 36 37  2  0
 29  3  1  0
 37 32  1  0
 16  8  1  0
 26 21  1  0
M  END
$$$$
