ZGNIKBGFAOAKMH-UHFFFAOYSA-N
     RDKit          3D

 26 29  0  0  0  0  0  0  0  0999 V2000
   -0.5340   24.1560  -24.8080 C   0  0  0  0  0  0  0  0  0  0  0  0
   -1.4450   24.1950  -25.9820 C   0  0  0  0  0  0  0  0  0  0  0  0
   -1.9970   23.1350  -26.5310 N   0  0  0  0  0  0  0  0  0  0  0  0
   -2.7780   23.5260  -27.6080 C   0  0  0  0  0  0  0  0  0  0  0  0
   -3.4780   22.5310  -28.4080 C   0  0  0  0  0  0  0  0  0  0  0  0
   -4.8130   22.2260  -28.0950 C   0  0  0  0  0  0  0  0  0  0  0  0
   -5.5330   21.3110  -28.8640 C   0  0  0  0  0  0  0  0  0  0  0  0
   -4.9270   20.6940  -29.9550 C   0  0  0  0  0  0  0  0  0  0  0  0
   -3.6000   20.9840  -30.2730 C   0  0  0  0  0  0  0  0  0  0  0  0
   -2.8580   21.9000  -29.5060 C   0  0  0  0  0  0  0  0  0  0  0  0
   -1.4400   22.2110  -29.9020 C   0  0  0  0  0  0  0  0  0  0  0  0
   -2.8270   24.8920  -27.8440 C   0  0  0  0  0  0  0  0  0  0  0  0
   -3.5530   25.5670  -28.8070 N   0  0  0  0  0  0  0  0  0  0  0  0
   -3.3380   25.5830  -30.1710 C   0  0  0  0  0  0  0  0  0  0  0  0
   -2.4770   24.9680  -30.7890 O   0  0  0  0  0  0  0  0  0  0  0  0
   -4.2750   26.4330  -30.8890 C   0  0  0  0  0  0  0  0  0  0  0  0
   -5.2260   26.0460  -31.8560 C   0  0  0  0  0  0  0  0  0  0  0  0
   -5.9390   27.0680  -32.3340 N   0  0  0  0  0  0  0  0  0  0  0  0
   -5.4500   28.1490  -31.6830 N   0  0  0  0  0  0  0  0  0  0  0  0
   -5.8390   29.4740  -31.8200 C   0  0  0  0  0  0  0  0  0  0  0  0
   -5.2430   30.4300  -31.0960 C   0  0  0  0  0  0  0  0  0  0  0  0
   -4.1630   29.9840  -30.1570 C   0  0  0  0  0  0  0  0  0  0  0  0
   -3.5120   30.9040  -29.3990 N   0  0  0  0  0  0  0  0  0  0  0  0
   -3.7940   28.7340  -30.0160 N   0  0  0  0  0  0  0  0  0  0  0  0
   -4.4380   27.8020  -30.7880 C   0  0  0  0  0  0  0  0  0  0  0  0
   -1.8410   25.6950  -26.7120 S   0  0  0  0  0  0  0  0  0  0  0  0
  1  2  1  0
  2  3  2  0
  3  4  1  0
  4  5  1  0
  5  6  2  0
  6  7  1  0
  7  8  2  0
  8  9  1  0
  9 10  2  0
 10 11  1  0
  4 12  2  0
 12 13  1  0
 13 14  1  0
 14 15  2  0
 14 16  1  0
 16 17  1  0
 17 18  2  0
 18 19  1  0
 19 20  1  0
 20 21  2  0
 21 22  1  0
 22 23  1  0
 22 24  2  0
 24 25  1  0
 12 26  1  0
 26  2  1  0
 10  5  1  0
 25 16  2  0
 25 19  1  0
M  END
$$$$
