CGBJSGAELGCMKE-UHFFFAOYSA-N
     RDKit          3D

 36 40  0  0  0  0  0  0  0  0999 V2000
   39.1130   50.0660   41.3020 C   0  0  0  0  0  0  0  0  0  0  0  0
   37.8160   50.5600   41.6210 O   0  0  0  0  0  0  0  0  0  0  0  0
   36.8080   49.6430   41.3720 C   0  0  0  0  0  0  0  0  0  0  0  0
   36.5870   49.2180   40.1090 N   0  0  0  0  0  0  0  0  0  0  0  0
   35.6050   48.2990   39.9450 C   0  0  0  0  0  0  0  0  0  0  0  0
   34.8130   47.7870   40.9740 C   0  0  0  0  0  0  0  0  0  0  0  0
   33.8100   46.7380   40.7470 C   0  0  0  0  0  0  0  0  0  0  0  0
   33.7990   45.9450   39.5980 C   0  0  0  0  0  0  0  0  0  0  0  0
   32.8210   44.9570   39.4260 C   0  0  0  0  0  0  0  0  0  0  0  0
   31.8330   44.7200   40.3720 C   0  0  0  0  0  0  0  0  0  0  0  0
   30.9280   43.7570   40.1360 N   0  0  0  0  0  0  0  0  0  0  0  0
   29.9710   43.5370   41.0600 C   0  0  0  0  0  0  0  0  0  0  0  0
   29.8670   44.2440   42.2420 C   0  0  0  0  0  0  0  0  0  0  0  0
   30.8030   45.2470   42.5040 C   0  0  0  0  0  0  0  0  0  0  0  0
   30.7140   46.0060   43.7560 C   0  0  0  0  0  0  0  0  0  0  0  0
   31.7220   46.8840   44.1510 C   0  0  0  0  0  0  0  0  0  0  0  0
   31.6070   47.5140   45.3750 C   0  0  0  0  0  0  0  0  0  0  0  0
   30.5590   47.3130   46.1990 N   0  0  0  0  0  0  0  0  0  0  0  0
   29.5630   46.4690   45.8230 N   0  0  0  0  0  0  0  0  0  0  0  0
   29.6460   45.8410   44.6300 C   0  0  0  0  0  0  0  0  0  0  0  0
   31.8200   45.5020   41.5440 C   0  0  0  0  0  0  0  0  0  0  0  0
   32.8140   46.4970   41.7080 C   0  0  0  0  0  0  0  0  0  0  0  0
   35.0610   48.2840   42.2630 C   0  0  0  0  0  0  0  0  0  0  0  0
   36.0910   49.1910   42.4840 C   0  0  0  0  0  0  0  0  0  0  0  0
   36.4120   49.6750   43.7970 N   0  0  0  0  0  0  0  0  0  0  0  0
   35.9770   51.2470   44.2340 S   0  0  0  0  0  0  0  0  0  0  0  0
   37.2000   51.9870   44.4530 O   0  0  0  0  0  0  0  0  0  0  0  0
   34.9870   51.7250   43.2890 O   0  0  0  0  0  0  0  0  0  0  0  0
   35.1740   51.0670   45.7950 C   0  0  0  0  0  0  0  0  0  0  0  0
   34.8320   49.7990   46.2750 C   0  0  0  0  0  0  0  0  0  0  0  0
   34.1980   49.6860   47.5130 C   0  0  0  0  0  0  0  0  0  0  0  0
   33.9140   50.8340   48.2490 C   0  0  0  0  0  0  0  0  0  0  0  0
   33.3090   50.7220   49.4380 F   0  0  0  0  0  0  0  0  0  0  0  0
   34.2500   52.0960   47.7700 C   0  0  0  0  0  0  0  0  0  0  0  0
   34.8780   52.2060   46.5360 C   0  0  0  0  0  0  0  0  0  0  0  0
   35.2110   53.4250   46.0880 F   0  0  0  0  0  0  0  0  0  0  0  0
  1  2  1  0
  2  3  1  0
  3  4  2  0
  4  5  1  0
  5  6  2  0
  6  7  1  0
  7  8  2  0
  8  9  1  0
  9 10  2  0
 10 11  1  0
 11 12  2  0
 12 13  1  0
 13 14  2  0
 14 15  1  0
 15 16  2  0
 16 17  1  0
 17 18  2  0
 18 19  1  0
 19 20  2  0
 14 21  1  0
 21 22  2  0
  6 23  1  0
 23 24  2  0
 24 25  1  0
 25 26  1  0
 26 27  2  0
 26 28  2  0
 26 29  1  0
 29 30  2  0
 30 31  1  0
 31 32  2  0
 32 33  1  0
 32 34  1  0
 34 35  2  0
 35 36  1  0
 24  3  1  0
 35 29  1  0
 22  7  1  0
 21 10  1  0
 20 15  1  0
M  END
$$$$
