FROPLQNRWKTHEE-UHFFFAOYSA-N
     RDKit          3D

 35 38  0  0  0  0  0  0  0  0999 V2000
   11.7850    1.9200  -10.5400 C   0  0  0  0  0  0  0  0  0  0  0  0
   10.9050    3.0000  -11.1540 C   0  0  0  0  0  0  0  0  0  0  0  0
    9.7900    3.4760  -10.2170 C   0  0  0  0  0  0  0  0  0  0  0  0
    9.9940    4.8750   -9.6780 C   0  0  0  0  0  0  0  0  0  0  0  0
   10.2920    5.9180  -10.5740 C   0  0  0  0  0  0  0  0  0  0  0  0
   10.5020    7.2290  -10.1250 C   0  0  0  0  0  0  0  0  0  0  0  0
   10.8240    8.3260  -11.1250 C   0  0  0  0  0  0  0  0  0  0  0  0
   10.1510    9.6580  -10.7560 C   0  0  0  0  0  0  0  0  0  0  0  0
   10.4860   10.7560  -11.7680 C   0  0  0  0  0  0  0  0  0  0  0  0
   10.1590   10.3670  -13.2260 C   0  0  0  0  0  0  0  0  0  0  0  0
   10.7280   11.4440  -14.1690 C   0  0  0  0  0  0  0  0  0  0  0  0
    8.6340   10.3070  -13.4420 C   0  0  0  0  0  0  0  0  0  0  0  0
   10.8090    9.0060  -13.5670 C   0  0  0  0  0  0  0  0  0  0  0  0
   10.4760    7.9030  -12.5600 C   0  0  0  0  0  0  0  0  0  0  0  0
   10.3980    7.4860   -8.7530 C   0  0  0  0  0  0  0  0  0  0  0  0
   10.1060    6.4580   -7.8510 C   0  0  0  0  0  0  0  0  0  0  0  0
    9.9090    5.1520   -8.3020 C   0  0  0  0  0  0  0  0  0  0  0  0
    9.6140    4.0860   -7.4950 O   0  0  0  0  0  0  0  0  0  0  0  0
    9.3200    4.3500   -6.1250 C   0  0  0  0  0  0  0  0  0  0  0  0
    7.8290    4.1370   -5.9010 C   0  0  0  0  0  0  0  0  0  0  0  0
    6.9970    5.2910   -6.4530 C   0  0  0  0  0  0  0  0  0  0  0  0
    5.6450    5.0980   -6.0330 O   0  0  0  0  0  0  0  0  0  0  0  0
    5.0280    6.1540   -5.4180 C   0  0  0  0  0  0  0  0  0  0  0  0
    5.0300    7.4750   -5.8620 C   0  0  0  0  0  0  0  0  0  0  0  0
    4.3620    8.4580   -5.1320 C   0  0  0  0  0  0  0  0  0  0  0  0
    3.6880    8.1260   -3.9570 C   0  0  0  0  0  0  0  0  0  0  0  0
    3.6730    6.8030   -3.4890 C   0  0  0  0  0  0  0  0  0  0  0  0
    2.9260    6.4720   -2.2160 C   0  0  1  0  0  0  0  0  0  0  0  0
    3.2550    5.1670   -1.7050 O   0  0  0  0  0  0  0  0  0  0  0  0
    3.7750    5.2980   -0.4560 C   0  0  0  0  0  0  0  0  0  0  0  0
    4.1570    4.3620    0.2270 O   0  0  0  0  0  0  0  0  0  0  0  0
    3.7910    6.5850   -0.0830 N   0  0  0  0  0  0  0  0  0  0  0  0
    3.2760    7.3690   -1.0520 C   0  0  0  0  0  0  0  0  0  0  0  0
    3.1160    8.5750   -0.9690 O   0  0  0  0  0  0  0  0  0  0  0  0
    4.3490    5.8270   -4.2390 C   0  0  0  0  0  0  0  0  0  0  0  0
  1  2  1  0
  2  3  1  0
  3  4  1  0
  4  5  2  0
  5  6  1  0
  6  7  1  0
  7  8  1  0
  8  9  1  0
  9 10  1  0
 10 11  1  0
 10 12  1  0
 10 13  1  0
 13 14  1  0
  6 15  2  0
 15 16  1  0
 16 17  2  0
 17 18  1  0
 18 19  1  0
 19 20  1  0
 20 21  1  0
 21 22  1  0
 22 23  1  0
 23 24  2  0
 24 25  1  0
 25 26  2  0
 26 27  1  0
 28 27  1  6
 28 29  1  0
 29 30  1  0
 30 31  2  0
 30 32  1  0
 32 33  1  0
 33 34  2  0
 27 35  2  0
 17  4  1  0
 35 23  1  0
 14  7  1  0
 33 28  1  0
M  END
$$$$
