
 OpenBabel09082616273D

 25 27  0  0  0  0  0  0  0  0999 V2000
  143.0950  130.8940  135.4610 C   0  0  0  0  0  0  0  0  0  0  0  0
  144.1380  131.8180  136.0930 C   0  0  0  0  0  0  0  0  0  0  0  0
  143.9130  131.9220  137.6010 C   0  0  0  0  0  0  0  0  0  0  0  0
  144.1750  133.5100  135.3050 S   0  0  0  0  0  0  0  0  0  0  0  0
  142.8650  133.4290  134.0840 C   0  0  0  0  0  0  0  0  0  0  0  0
  142.6290  132.1880  133.4820 C   0  0  0  0  0  0  0  0  0  0  0  0
  142.1520  134.5580  133.6370 C   0  0  0  0  0  0  0  0  0  0  0  0
  141.6680  132.0910  132.4920 C   0  0  0  0  0  0  0  0  0  0  0  0
  141.2190  134.3350  132.6170 C   0  0  0  0  0  0  0  0  0  0  0  0
  140.9490  133.1380  132.0440 N   0  0  0  0  0  0  0  0  0  0  0  0
  142.3600  135.9370  134.1340 C   0  0  0  0  0  0  0  0  0  0  0  0
  141.5660  136.3760  135.2090 C   0  0  0  0  0  0  0  0  0  0  0  0
  143.3550  136.8140  133.5990 C   0  0  0  0  0  0  0  0  0  0  0  0
  141.7260  137.6440  135.7520 C   0  0  0  0  0  0  0  0  0  0  0  0
  144.1870  136.4530  132.5100 C   0  0  0  0  0  0  0  0  0  0  0  0
  143.5290  138.1100  134.1630 C   0  0  0  0  0  0  0  0  0  0  0  0
  142.6990  138.5070  135.2420 C   0  0  0  0  0  0  0  0  0  0  0  0
  145.1580  137.3110  131.9940 C   0  0  0  0  0  0  0  0  0  0  0  0
  144.5250  138.9600  133.6200 C   0  0  0  0  0  0  0  0  0  0  0  0
  142.8330  139.7960  135.8640 C   0  0  0  0  0  0  0  0  0  0  0  0
  145.3300  138.5650  132.5520 C   0  0  0  0  0  0  0  0  0  0  0  0
  142.9620  140.8250  136.3870 N   0  0  0  0  0  0  0  0  0  0  0  0
  145.5730  131.2610  135.7830 C   0  0  0  0  0  0  0  0  0  0  0  0
  145.8170  131.0030  134.5650 O   0  0  0  0  0  0  0  0  0  0  0  0
  146.3360  131.0950  136.7810 O   0  0  0  0  0  0  0  0  0  0  0  0
  1  2  1  0  0  0  0
  2  3  1  0  0  0  0
  4  2  1  0  0  0  0
  5  4  1  0  0  0  0
  6  5  2  0  0  0  0
  7  5  1  0  0  0  0
  7 11  1  0  0  0  0
  8  6  1  0  0  0  0
  9  7  2  0  0  0  0
 10  8  2  0  0  0  0
 10  9  1  0  0  0  0
 11 12  1  0  0  0  0
 12 14  2  0  0  0  0
 13 11  2  0  0  0  0
 13 16  1  0  0  0  0
 15 13  1  0  0  0  0
 16 17  2  0  0  0  0
 17 14  1  0  0  0  0
 17 20  1  0  0  0  0
 18 15  2  0  0  0  0
 18 21  1  0  0  0  0
 19 16  1  0  0  0  0
 20 22  3  0  0  0  0
 21 19  2  0  0  0  0
 23  2  1  0  0  0  0
 23 25  1  0  0  0  0
 24 23  2  0  0  0  0
M  END
>  <minimizedAffinity>
-11.6537714

>  <CNNscore>
0.88624388

>  <CNNaffinity>
7.55472803

$$$$

 OpenBabel09082616273D

 25 27  0  0  0  0  0  0  0  0999 V2000
  143.2030  130.7780  135.2330 C   0  0  0  0  0  0  0  0  0  0  0  0
  144.2140  131.6880  135.9340 C   0  0  0  0  0  0  0  0  0  0  0  0
  143.9060  131.7760  137.4270 C   0  0  0  0  0  0  0  0  0  0  0  0
  144.3060  133.3890  135.1690 S   0  0  0  0  0  0  0  0  0  0  0  0
  142.9970  133.3650  133.9450 C   0  0  0  0  0  0  0  0  0  0  0  0
  142.2940  132.1660  133.7840 C   0  0  0  0  0  0  0  0  0  0  0  0
  142.7240  134.4450  133.0820 C   0  0  0  0  0  0  0  0  0  0  0  0
  141.3160  132.0830  132.8100 C   0  0  0  0  0  0  0  0  0  0  0  0
  141.7230  134.2320  132.1250 C   0  0  0  0  0  0  0  0  0  0  0  0
  141.0080  133.0920  131.9730 N   0  0  0  0  0  0  0  0  0  0  0  0
  143.4460  135.7370  133.0960 C   0  0  0  0  0  0  0  0  0  0  0  0
  144.5080  135.9060  132.1900 C   0  0  0  0  0  0  0  0  0  0  0  0
  143.0800  136.8220  133.9530 C   0  0  0  0  0  0  0  0  0  0  0  0
  145.2120  137.1020  132.1200 C   0  0  0  0  0  0  0  0  0  0  0  0
  142.0300  136.7290  134.9010 C   0  0  0  0  0  0  0  0  0  0  0  0
  143.7920  138.0530  133.8740 C   0  0  0  0  0  0  0  0  0  0  0  0
  144.8600  138.1710  132.9480 C   0  0  0  0  0  0  0  0  0  0  0  0
  141.6760  137.7920  135.7320 C   0  0  0  0  0  0  0  0  0  0  0  0
  143.4090  139.1170  134.7290 C   0  0  0  0  0  0  0  0  0  0  0  0
  145.6090  139.3900  132.8100 C   0  0  0  0  0  0  0  0  0  0  0  0
  142.3650  138.9890  135.6430 C   0  0  0  0  0  0  0  0  0  0  0  0
  146.1940  140.3850  132.6760 N   0  0  0  0  0  0  0  0  0  0  0  0
  145.6610  131.1260  135.6970 C   0  0  0  0  0  0  0  0  0  0  0  0
  146.3820  130.9940  136.7330 O   0  0  0  0  0  0  0  0  0  0  0  0
  145.9790  130.8870  134.4930 O   0  0  0  0  0  0  0  0  0  0  0  0
  1  2  1  0  0  0  0
  2  3  1  0  0  0  0
  4  2  1  0  0  0  0
  5  4  1  0  0  0  0
  6  5  1  0  0  0  0
  7 11  1  0  0  0  0
  7  5  2  0  0  0  0
  8  6  2  0  0  0  0
  9  7  1  0  0  0  0
 10  9  2  0  0  0  0
 10  8  1  0  0  0  0
 11 13  1  0  0  0  0
 12 11  2  0  0  0  0
 13 15  1  0  0  0  0
 14 12  1  0  0  0  0
 14 17  2  0  0  0  0
 15 18  2  0  0  0  0
 16 13  2  0  0  0  0
 16 19  1  0  0  0  0
 17 16  1  0  0  0  0
 19 21  2  0  0  0  0
 20 17  1  0  0  0  0
 21 18  1  0  0  0  0
 22 20  3  0  0  0  0
 23  2  1  0  0  0  0
 23 24  1  0  0  0  0
 25 23  2  0  0  0  0
M  END
>  <minimizedAffinity>
-10.8003197

>  <CNNscore>
0.744740844

>  <CNNaffinity>
7.21208

$$$$

 OpenBabel09082616273D

 25 27  0  0  0  0  0  0  0  0999 V2000
  143.2920  132.3670  134.1990 C   0  0  0  0  0  0  0  0  0  0  0  0
  144.0370  131.9340  135.4630 C   0  0  0  0  0  0  0  0  0  0  0  0
  143.1390  131.0600  136.3370 C   0  0  0  0  0  0  0  0  0  0  0  0
  144.7110  133.3800  136.4350 S   0  0  0  0  0  0  0  0  0  0  0  0
  143.9200  134.7960  135.6740 C   0  0  0  0  0  0  0  0  0  0  0  0
  142.6250  135.1110  136.1000 C   0  0  0  0  0  0  0  0  0  0  0  0
  144.4920  135.5260  134.6130 C   0  0  0  0  0  0  0  0  0  0  0  0
  141.9530  136.1600  135.4980 C   0  0  0  0  0  0  0  0  0  0  0  0
  143.7050  136.5520  134.0750 C   0  0  0  0  0  0  0  0  0  0  0  0
  142.4640  136.8950  134.4940 N   0  0  0  0  0  0  0  0  0  0  0  0
  145.8180  135.2460  134.0180 C   0  0  0  0  0  0  0  0  0  0  0  0
  146.7630  134.5650  134.8060 C   0  0  0  0  0  0  0  0  0  0  0  0
  146.1560  135.5990  132.6740 C   0  0  0  0  0  0  0  0  0  0  0  0
  148.0160  134.2380  134.3070 C   0  0  0  0  0  0  0  0  0  0  0  0
  145.2670  136.2970  131.8190 C   0  0  0  0  0  0  0  0  0  0  0  0
  147.4370  135.2540  132.1560 C   0  0  0  0  0  0  0  0  0  0  0  0
  148.3560  134.5710  132.9930 C   0  0  0  0  0  0  0  0  0  0  0  0
  145.6020  136.6360  130.5070 C   0  0  0  0  0  0  0  0  0  0  0  0
  147.7490  135.6090  130.8190 C   0  0  0  0  0  0  0  0  0  0  0  0
  149.6590  134.1820  132.5260 C   0  0  0  0  0  0  0  0  0  0  0  0
  146.8430  136.2880  130.0060 C   0  0  0  0  0  0  0  0  0  0  0  0
  150.7000  133.8400  132.1400 N   0  0  0  0  0  0  0  0  0  0  0  0
  145.3380  131.1580  135.0530 C   0  0  0  0  0  0  0  0  0  0  0  0
  145.2440  130.4210  134.0240 O   0  0  0  0  0  0  0  0  0  0  0  0
  146.3460  131.3190  135.8040 O   0  0  0  0  0  0  0  0  0  0  0  0
  1  2  1  0  0  0  0
  2  3  1  0  0  0  0
  2  4  1  0  0  0  0
  5  6  1  0  0  0  0
  5  4  1  0  0  0  0
  7  5  2  0  0  0  0
  8  6  2  0  0  0  0
  9 10  2  0  0  0  0
  9  7  1  0  0  0  0
 10  8  1  0  0  0  0
 11  7  1  0  0  0  0
 11 12  1  0  0  0  0
 13 11  2  0  0  0  0
 14 12  2  0  0  0  0
 15 13  1  0  0  0  0
 16 13  1  0  0  0  0
 16 17  2  0  0  0  0
 17 14  1  0  0  0  0
 18 15  2  0  0  0  0
 19 16  1  0  0  0  0
 20 17  1  0  0  0  0
 21 18  1  0  0  0  0
 21 19  2  0  0  0  0
 22 20  3  0  0  0  0
 23  2  1  0  0  0  0
 23 25  1  0  0  0  0
 24 23  2  0  0  0  0
M  END
>  <minimizedAffinity>
-8.04868507

>  <CNNscore>
0.627469182

>  <CNNaffinity>
6.51947403

$$$$

 OpenBabel09082616273D

 25 27  0  0  0  0  0  0  0  0999 V2000
  147.8520  134.2250  134.4660 C   0  0  0  0  0  0  0  0  0  0  0  0
  146.5930  133.4430  134.0880 C   0  0  0  0  0  0  0  0  0  0  0  0
  146.1240  133.8350  132.6870 C   0  0  0  0  0  0  0  0  0  0  0  0
  145.2160  133.6450  135.3330 S   0  0  0  0  0  0  0  0  0  0  0  0
  143.7390  133.2970  134.3800 C   0  0  0  0  0  0  0  0  0  0  0  0
  143.4560  131.9540  134.1070 C   0  0  0  0  0  0  0  0  0  0  0  0
  142.9270  134.3000  133.8150 C   0  0  0  0  0  0  0  0  0  0  0  0
  142.3590  131.6410  133.3250 C   0  0  0  0  0  0  0  0  0  0  0  0
  141.8570  133.8570  133.0270 C   0  0  0  0  0  0  0  0  0  0  0  0
  141.5450  132.5630  132.7780 N   0  0  0  0  0  0  0  0  0  0  0  0
  143.1610  135.7550  133.9620 C   0  0  0  0  0  0  0  0  0  0  0  0
  142.6530  136.3910  135.1080 C   0  0  0  0  0  0  0  0  0  0  0  0
  143.9130  136.5190  133.0150 C   0  0  0  0  0  0  0  0  0  0  0  0
  142.8600  137.7460  135.3320 C   0  0  0  0  0  0  0  0  0  0  0  0
  144.4480  135.9570  131.8290 C   0  0  0  0  0  0  0  0  0  0  0  0
  144.1370  137.9060  133.2490 C   0  0  0  0  0  0  0  0  0  0  0  0
  143.5990  138.5020  134.4180 C   0  0  0  0  0  0  0  0  0  0  0  0
  145.1840  136.7070  130.9120 C   0  0  0  0  0  0  0  0  0  0  0  0
  144.8900  138.6430  132.3010 C   0  0  0  0  0  0  0  0  0  0  0  0
  143.8010  139.8930  134.7190 C   0  0  0  0  0  0  0  0  0  0  0  0
  145.4080  138.0520  131.1490 C   0  0  0  0  0  0  0  0  0  0  0  0
  143.9900  141.0090  134.9790 N   0  0  0  0  0  0  0  0  0  0  0  0
  146.9010  131.9050  134.1610 C   0  0  0  0  0  0  0  0  0  0  0  0
  146.5990  131.3300  135.2500 O   0  0  0  0  0  0  0  0  0  0  0  0
  147.4480  131.3950  133.1370 O   0  0  0  0  0  0  0  0  0  0  0  0
  2 23  1  0  0  0  0
  2  1  1  0  0  0  0
  2  4  1  0  0  0  0
  3  2  1  0  0  0  0
  5  4  1  0  0  0  0
  6  5  1  0  0  0  0
  7 11  1  0  0  0  0
  7  5  2  0  0  0  0
  8  6  2  0  0  0  0
  9  7  1  0  0  0  0
 10  9  2  0  0  0  0
 10  8  1  0  0  0  0
 11 12  1  0  0  0  0
 12 14  2  0  0  0  0
 13 16  1  0  0  0  0
 13 11  2  0  0  0  0
 15 13  1  0  0  0  0
 16 17  2  0  0  0  0
 17 20  1  0  0  0  0
 17 14  1  0  0  0  0
 18 21  1  0  0  0  0
 18 15  2  0  0  0  0
 19 16  1  0  0  0  0
 20 22  3  0  0  0  0
 21 19  2  0  0  0  0
 23 24  1  0  0  0  0
 25 23  2  0  0  0  0
M  END
>  <minimizedAffinity>
-8.35384178

>  <CNNscore>
0.619893253

>  <CNNaffinity>
7.26441193

$$$$

 OpenBabel09082616273D

 25 27  0  0  0  0  0  0  0  0999 V2000
  147.4420  135.1130  133.5900 C   0  0  0  0  0  0  0  0  0  0  0  0
  147.3310  136.0730  132.4040 C   0  0  0  0  0  0  0  0  0  0  0  0
  147.8690  137.4510  132.7820 C   0  0  0  0  0  0  0  0  0  0  0  0
  145.5910  136.1950  131.7350 S   0  0  0  0  0  0  0  0  0  0  0  0
  144.7730  137.2800  132.9030 C   0  0  0  0  0  0  0  0  0  0  0  0
  144.9210  138.6580  132.7070 C   0  0  0  0  0  0  0  0  0  0  0  0
  144.0920  136.8160  134.0460 C   0  0  0  0  0  0  0  0  0  0  0  0
  144.3560  139.5330  133.6180 C   0  0  0  0  0  0  0  0  0  0  0  0
  143.5810  137.8010  134.9020 C   0  0  0  0  0  0  0  0  0  0  0  0
  143.6830  139.1380  134.7150 N   0  0  0  0  0  0  0  0  0  0  0  0
  143.9330  135.3910  134.4100 C   0  0  0  0  0  0  0  0  0  0  0  0
  144.6630  134.9070  135.5100 C   0  0  0  0  0  0  0  0  0  0  0  0
  143.0430  134.5080  133.7210 C   0  0  0  0  0  0  0  0  0  0  0  0
  144.5410  133.5900  135.9330 C   0  0  0  0  0  0  0  0  0  0  0  0
  142.2810  134.9130  132.5960 C   0  0  0  0  0  0  0  0  0  0  0  0
  142.9070  133.1600  134.1610 C   0  0  0  0  0  0  0  0  0  0  0  0
  143.6700  132.7200  135.2730 C   0  0  0  0  0  0  0  0  0  0  0  0
  141.4120  134.0480  131.9310 C   0  0  0  0  0  0  0  0  0  0  0  0
  142.0150  132.3040  133.4670 C   0  0  0  0  0  0  0  0  0  0  0  0
  143.5690  131.3760  135.7740 C   0  0  0  0  0  0  0  0  0  0  0  0
  141.2770  132.7430  132.3690 C   0  0  0  0  0  0  0  0  0  0  0  0
  143.4640  130.3000  136.1990 N   0  0  0  0  0  0  0  0  0  0  0  0
  148.1270  135.4800  131.1870 C   0  0  0  0  0  0  0  0  0  0  0  0
  148.9210  134.5280  131.4540 O   0  0  0  0  0  0  0  0  0  0  0  0
  147.9210  136.0300  130.0630 O   0  0  0  0  0  0  0  0  0  0  0  0
  2  3  1  0  0  0  0
  2  1  1  0  0  0  0
  4  2  1  0  0  0  0
  4  5  1  0  0  0  0
  5  7  1  0  0  0  0
  6  5  2  0  0  0  0
  6  8  1  0  0  0  0
  7 11  1  0  0  0  0
  7  9  2  0  0  0  0
  8 10  2  0  0  0  0
 10  9  1  0  0  0  0
 11 12  1  0  0  0  0
 12 14  2  0  0  0  0
 13 16  1  0  0  0  0
 13 11  2  0  0  0  0
 15 13  1  0  0  0  0
 16 17  2  0  0  0  0
 17 20  1  0  0  0  0
 17 14  1  0  0  0  0
 18 21  1  0  0  0  0
 18 15  2  0  0  0  0
 19 16  1  0  0  0  0
 20 22  3  0  0  0  0
 21 19  2  0  0  0  0
 23 24  1  0  0  0  0
 23  2  1  0  0  0  0
 25 23  2  0  0  0  0
M  END
>  <minimizedAffinity>
-8.16205025

>  <CNNscore>
0.595984936

>  <CNNaffinity>
6.98219538

$$$$

 OpenBabel09082616273D

 25 27  0  0  0  0  0  0  0  0999 V2000
  146.1880  133.8770  136.5670 C   0  0  0  0  0  0  0  0  0  0  0  0
  146.3760  133.9400  135.0500 C   0  0  0  0  0  0  0  0  0  0  0  0
  147.6560  134.6990  134.7030 C   0  0  0  0  0  0  0  0  0  0  0  0
  144.9030  134.6790  134.1700 S   0  0  0  0  0  0  0  0  0  0  0  0
  145.6440  135.6090  132.8290 C   0  0  0  0  0  0  0  0  0  0  0  0
  146.5710  134.9400  132.0230 C   0  0  0  0  0  0  0  0  0  0  0  0
  145.4180  136.9850  132.6240 C   0  0  0  0  0  0  0  0  0  0  0  0
  147.2120  135.6350  131.0130 C   0  0  0  0  0  0  0  0  0  0  0  0
  146.1410  137.5800  131.5820 C   0  0  0  0  0  0  0  0  0  0  0  0
  147.0180  136.9450  130.7680 N   0  0  0  0  0  0  0  0  0  0  0  0
  144.5250  137.8240  133.4530 C   0  0  0  0  0  0  0  0  0  0  0  0
  144.8090  139.1990  133.5420 C   0  0  0  0  0  0  0  0  0  0  0  0
  143.3720  137.3060  134.1220 C   0  0  0  0  0  0  0  0  0  0  0  0
  143.9980  140.0570  134.2740 C   0  0  0  0  0  0  0  0  0  0  0  0
  143.0230  135.9320  134.0920 C   0  0  0  0  0  0  0  0  0  0  0  0
  142.5320  138.1860  134.8630 C   0  0  0  0  0  0  0  0  0  0  0  0
  142.8660  139.5630  134.9260 C   0  0  0  0  0  0  0  0  0  0  0  0
  141.8950  135.4330  134.7450 C   0  0  0  0  0  0  0  0  0  0  0  0
  141.3920  137.6510  135.5140 C   0  0  0  0  0  0  0  0  0  0  0  0
  142.0520  140.5050  135.6460 C   0  0  0  0  0  0  0  0  0  0  0  0
  141.0770  136.2950  135.4540 C   0  0  0  0  0  0  0  0  0  0  0  0
  141.3780  141.2720  136.2000 N   0  0  0  0  0  0  0  0  0  0  0  0
  146.4230  132.4790  134.4760 C   0  0  0  0  0  0  0  0  0  0  0  0
  145.3010  131.9550  134.1990 O   0  0  0  0  0  0  0  0  0  0  0  0
  147.5720  131.9550  134.3750 O   0  0  0  0  0  0  0  0  0  0  0  0
  2  1  1  0  0  0  0
  3  2  1  0  0  0  0
  4  2  1  0  0  0  0
  5  4  1  0  0  0  0
  6  5  2  0  0  0  0
  7  5  1  0  0  0  0
  7 11  1  0  0  0  0
  8  6  1  0  0  0  0
  9  7  2  0  0  0  0
 10  8  2  0  0  0  0
 10  9  1  0  0  0  0
 11 12  2  0  0  0  0
 11 13  1  0  0  0  0
 12 14  1  0  0  0  0
 13 16  1  0  0  0  0
 14 17  2  0  0  0  0
 15 13  2  0  0  0  0
 15 18  1  0  0  0  0
 16 17  1  0  0  0  0
 16 19  2  0  0  0  0
 17 20  1  0  0  0  0
 18 21  2  0  0  0  0
 20 22  3  0  0  0  0
 21 19  1  0  0  0  0
 23  2  1  0  0  0  0
 24 23  2  0  0  0  0
 25 23  1  0  0  0  0
M  END
>  <minimizedAffinity>
-9.93561745

>  <CNNscore>
0.569196105

>  <CNNaffinity>
6.73060989

$$$$

 OpenBabel09082616273D

 25 27  0  0  0  0  0  0  0  0999 V2000
  143.7310  131.4730  136.1750 C   0  0  0  0  0  0  0  0  0  0  0  0
  144.7000  132.6480  136.0300 C   0  0  0  0  0  0  0  0  0  0  0  0
  143.9780  133.9690  136.2890 C   0  0  0  0  0  0  0  0  0  0  0  0
  145.5620  132.6720  134.3740 S   0  0  0  0  0  0  0  0  0  0  0  0
  145.0660  134.2440  133.6700 C   0  0  0  0  0  0  0  0  0  0  0  0
  143.6960  134.4480  133.4650 C   0  0  0  0  0  0  0  0  0  0  0  0
  145.9810  135.2170  133.2240 C   0  0  0  0  0  0  0  0  0  0  0  0
  143.2710  135.6220  132.8690 C   0  0  0  0  0  0  0  0  0  0  0  0
  145.4280  136.3530  132.6200 C   0  0  0  0  0  0  0  0  0  0  0  0
  144.1060  136.5870  132.4420 N   0  0  0  0  0  0  0  0  0  0  0  0
  147.4530  135.0900  133.3090 C   0  0  0  0  0  0  0  0  0  0  0  0
  148.1680  136.1260  133.9370 C   0  0  0  0  0  0  0  0  0  0  0  0
  148.1640  133.9480  132.8230 C   0  0  0  0  0  0  0  0  0  0  0  0
  149.5470  136.0630  134.0850 C   0  0  0  0  0  0  0  0  0  0  0  0
  147.5200  132.8680  132.1680 C   0  0  0  0  0  0  0  0  0  0  0  0
  149.5770  133.8760  132.9850 C   0  0  0  0  0  0  0  0  0  0  0  0
  150.2520  134.9490  133.6200 C   0  0  0  0  0  0  0  0  0  0  0  0
  148.2190  131.7550  131.6980 C   0  0  0  0  0  0  0  0  0  0  0  0
  150.2600  132.7320  132.5000 C   0  0  0  0  0  0  0  0  0  0  0  0
  151.6740  134.9310  133.8260 C   0  0  0  0  0  0  0  0  0  0  0  0
  149.5900  131.6850  131.8680 C   0  0  0  0  0  0  0  0  0  0  0  0
  152.8190  134.9030  134.0210 N   0  0  0  0  0  0  0  0  0  0  0  0
  145.8910  132.4590  137.0360 C   0  0  0  0  0  0  0  0  0  0  0  0
  146.2280  131.2610  137.2790 O   0  0  0  0  0  0  0  0  0  0  0  0
  146.3800  133.5200  137.5290 O   0  0  0  0  0  0  0  0  0  0  0  0
  2  1  1  0  0  0  0
  2  3  1  0  0  0  0
  2 23  1  0  0  0  0
  4  2  1  0  0  0  0
  5  4  1  0  0  0  0
  6  5  1  0  0  0  0
  7 11  1  0  0  0  0
  7  5  2  0  0  0  0
  8  6  2  0  0  0  0
  9  7  1  0  0  0  0
 10  9  2  0  0  0  0
 10  8  1  0  0  0  0
 11 12  1  0  0  0  0
 12 14  2  0  0  0  0
 13 16  1  0  0  0  0
 13 11  2  0  0  0  0
 15 13  1  0  0  0  0
 16 17  2  0  0  0  0
 17 20  1  0  0  0  0
 17 14  1  0  0  0  0
 18 21  1  0  0  0  0
 18 15  2  0  0  0  0
 19 16  1  0  0  0  0
 20 22  3  0  0  0  0
 21 19  2  0  0  0  0
 23 24  2  0  0  0  0
 23 25  1  0  0  0  0
M  END
>  <minimizedAffinity>
-4.44649887

>  <CNNscore>
0.522995055

>  <CNNaffinity>
5.97638559

$$$$

 OpenBabel09082616273D

 25 27  0  0  0  0  0  0  0  0999 V2000
  148.1470  136.5200  133.2490 C   0  0  0  0  0  0  0  0  0  0  0  0
  147.9980  135.6130  132.0260 C   0  0  0  0  0  0  0  0  0  0  0  0
  149.0530  135.9570  130.9770 C   0  0  0  0  0  0  0  0  0  0  0  0
  146.2820  135.6700  131.2910 S   0  0  0  0  0  0  0  0  0  0  0  0
  145.4960  137.0170  132.1730 C   0  0  0  0  0  0  0  0  0  0  0  0
  145.7640  138.3160  131.7270 C   0  0  0  0  0  0  0  0  0  0  0  0
  144.7230  136.8340  133.3370 C   0  0  0  0  0  0  0  0  0  0  0  0
  145.2260  139.3890  132.4140 C   0  0  0  0  0  0  0  0  0  0  0  0
  144.2500  138.0000  133.9530 C   0  0  0  0  0  0  0  0  0  0  0  0
  144.4690  139.2640  133.5200 N   0  0  0  0  0  0  0  0  0  0  0  0
  144.4310  135.5220  133.9560 C   0  0  0  0  0  0  0  0  0  0  0  0
  145.1820  135.1450  135.0830 C   0  0  0  0  0  0  0  0  0  0  0  0
  143.3970  134.6530  133.4850 C   0  0  0  0  0  0  0  0  0  0  0  0
  144.9440  133.9440  135.7390 C   0  0  0  0  0  0  0  0  0  0  0  0
  142.6030  134.9540  132.3490 C   0  0  0  0  0  0  0  0  0  0  0  0
  143.1430  133.4270  134.1630 C   0  0  0  0  0  0  0  0  0  0  0  0
  143.9320  133.0900  135.2920 C   0  0  0  0  0  0  0  0  0  0  0  0
  141.5940  134.1040  131.8960 C   0  0  0  0  0  0  0  0  0  0  0  0
  142.1090  132.5840  133.6820 C   0  0  0  0  0  0  0  0  0  0  0  0
  143.7180  131.8740  136.0280 C   0  0  0  0  0  0  0  0  0  0  0  0
  141.3450  132.9190  132.5660 C   0  0  0  0  0  0  0  0  0  0  0  0
  143.5240  130.9070  136.6420 N   0  0  0  0  0  0  0  0  0  0  0  0
  148.1300  134.1150  132.4770 C   0  0  0  0  0  0  0  0  0  0  0  0
  149.2910  133.6110  132.3920 O   0  0  0  0  0  0  0  0  0  0  0  0
  147.0610  133.5480  132.8540 O   0  0  0  0  0  0  0  0  0  0  0  0
  2 23  1  0  0  0  0
  2  1  1  0  0  0  0
  3  2  1  0  0  0  0
  4  2  1  0  0  0  0
  4  5  1  0  0  0  0
  5  7  1  0  0  0  0
  6  5  2  0  0  0  0
  6  8  1  0  0  0  0
  7  9  2  0  0  0  0
  7 11  1  0  0  0  0
  8 10  2  0  0  0  0
 10  9  1  0  0  0  0
 11 12  1  0  0  0  0
 12 14  2  0  0  0  0
 13 11  2  0  0  0  0
 13 16  1  0  0  0  0
 15 13  1  0  0  0  0
 16 17  2  0  0  0  0
 17 14  1  0  0  0  0
 17 20  1  0  0  0  0
 18 15  2  0  0  0  0
 18 21  1  0  0  0  0
 19 16  1  0  0  0  0
 20 22  3  0  0  0  0
 21 19  2  0  0  0  0
 23 25  1  0  0  0  0
 24 23  2  0  0  0  0
M  END
>  <minimizedAffinity>
-6.85880613

>  <CNNscore>
0.495933115

>  <CNNaffinity>
6.68594503

$$$$

 OpenBabel09082616273D

 25 27  0  0  0  0  0  0  0  0999 V2000
  143.9450  133.5990  135.1740 C   0  0  0  0  0  0  0  0  0  0  0  0
  145.2990  133.0980  135.6810 C   0  0  0  0  0  0  0  0  0  0  0  0
  145.2500  132.8690  137.1910 C   0  0  0  0  0  0  0  0  0  0  0  0
  146.7070  134.2350  135.2230 S   0  0  0  0  0  0  0  0  0  0  0  0
  146.0620  135.1530  133.8260 C   0  0  0  0  0  0  0  0  0  0  0  0
  144.6710  135.2140  133.6880 C   0  0  0  0  0  0  0  0  0  0  0  0
  146.8780  135.7130  132.8230 C   0  0  0  0  0  0  0  0  0  0  0  0
  144.1290  135.8620  132.5930 C   0  0  0  0  0  0  0  0  0  0  0  0
  146.2110  136.3250  131.7550 C   0  0  0  0  0  0  0  0  0  0  0  0
  144.8670  136.4250  131.6180 N   0  0  0  0  0  0  0  0  0  0  0  0
  148.3570  135.6490  132.8080 C   0  0  0  0  0  0  0  0  0  0  0  0
  149.0690  136.8250  133.1050 C   0  0  0  0  0  0  0  0  0  0  0  0
  149.0800  134.4420  132.5500 C   0  0  0  0  0  0  0  0  0  0  0  0
  150.4570  136.8370  133.1430 C   0  0  0  0  0  0  0  0  0  0  0  0
  148.4390  133.2190  132.2320 C   0  0  0  0  0  0  0  0  0  0  0  0
  150.5030  134.4500  132.6010 C   0  0  0  0  0  0  0  0  0  0  0  0
  151.1750  135.6630  132.9000 C   0  0  0  0  0  0  0  0  0  0  0  0
  149.1500  132.0450  131.9840 C   0  0  0  0  0  0  0  0  0  0  0  0
  151.1990  133.2410  132.3480 C   0  0  0  0  0  0  0  0  0  0  0  0
  152.6080  135.7340  132.9800 C   0  0  0  0  0  0  0  0  0  0  0  0
  150.5320  132.0550  132.0460 C   0  0  0  0  0  0  0  0  0  0  0  0
  153.7650  135.7840  133.0750 N   0  0  0  0  0  0  0  0  0  0  0  0
  145.6690  131.7700  134.9290 C   0  0  0  0  0  0  0  0  0  0  0  0
  146.9050  131.4890  134.8750 O   0  0  0  0  0  0  0  0  0  0  0  0
  144.7010  131.1240  134.4250 O   0  0  0  0  0  0  0  0  0  0  0  0
  1  2  1  0  0  0  0
  2  3  1  0  0  0  0
  4  2  1  0  0  0  0
  5  4  1  0  0  0  0
  6  5  1  0  0  0  0
  7  5  2  0  0  0  0
  8  6  2  0  0  0  0
  9  7  1  0  0  0  0
 10  9  2  0  0  0  0
 10  8  1  0  0  0  0
 11  7  1  0  0  0  0
 11 12  1  0  0  0  0
 12 14  2  0  0  0  0
 13 16  1  0  0  0  0
 13 11  2  0  0  0  0
 15 13  1  0  0  0  0
 16 17  2  0  0  0  0
 17 20  1  0  0  0  0
 17 14  1  0  0  0  0
 18 21  1  0  0  0  0
 18 15  2  0  0  0  0
 19 16  1  0  0  0  0
 20 22  3  0  0  0  0
 21 19  2  0  0  0  0
 23  2  1  0  0  0  0
 24 23  1  0  0  0  0
 25 23  2  0  0  0  0
M  END
>  <minimizedAffinity>
-7.74817562

>  <CNNscore>
0.413782209

>  <CNNaffinity>
5.89782572

$$$$
