DCCNZIMOOBWFDR-UHFFFAOYSA-N
     RDKit          3D

 29 32  0  0  0  0  0  0  0  0999 V2000
   -4.1050   14.8490   26.3820 C   0  0  0  0  0  0  0  0  0  0  0  0
   -4.6640   13.8160   25.5690 O   0  0  0  0  0  0  0  0  0  0  0  0
   -5.7210   14.2930   24.8400 C   0  0  0  0  0  0  0  0  0  0  0  0
   -6.8400   14.8020   25.5030 C   0  0  0  0  0  0  0  0  0  0  0  0
   -7.9510   15.2270   24.7710 C   0  0  0  0  0  0  0  0  0  0  0  0
   -7.9510   15.1280   23.3790 C   0  0  0  0  0  0  0  0  0  0  0  0
   -6.8420   14.6020   22.7140 C   0  0  0  0  0  0  0  0  0  0  0  0
   -5.7270   14.1730   23.4460 C   0  0  0  0  0  0  0  0  0  0  0  0
   -4.5390   13.6410   22.7420 C   0  0  0  0  0  0  0  0  0  0  0  0
   -3.6680   14.4330   22.3770 O   0  0  0  0  0  0  0  0  0  0  0  0
   -4.3620   12.2800   22.4480 N   0  0  0  0  0  0  0  0  0  0  0  0
   -5.0790   11.6760   21.4660 N   0  0  0  0  0  0  0  0  0  0  0  0
   -4.6230   10.4140   21.4980 C   0  0  0  0  0  0  0  0  0  0  0  0
   -5.0870    9.3400   20.6050 C   0  0  0  0  0  0  0  0  0  0  0  0
   -6.3540    8.7860   20.7760 C   0  0  0  0  0  0  0  0  0  0  0  0
   -6.7680    7.7700   19.9170 C   0  0  0  0  0  0  0  0  0  0  0  0
   -5.9100    7.3360   18.9150 C   0  0  0  0  0  0  0  0  0  0  0  0
   -4.6670    7.9370   18.8110 C   0  0  0  0  0  0  0  0  0  0  0  0
   -4.2370    8.9210   19.6290 N   0  0  0  0  0  0  0  0  0  0  0  0
   -3.6510   10.1950   22.4530 N   0  0  0  0  0  0  0  0  0  0  0  0
   -3.5010   11.3620   23.0350 C   0  0  0  0  0  0  0  0  0  0  0  0
   -2.6590   11.6750   24.0420 N   0  0  0  0  0  0  0  0  0  0  0  0
   -1.4000   10.9890   24.1950 C   0  0  0  0  0  0  0  0  0  0  0  0
   -1.4680   10.0710   25.3910 C   0  0  0  0  0  0  0  0  0  0  0  0
   -2.4750   10.2300   26.3540 C   0  0  0  0  0  0  0  0  0  0  0  0
   -2.5230    9.3970   27.4730 C   0  0  0  0  0  0  0  0  0  0  0  0
   -1.5620    8.4030   27.6450 C   0  0  0  0  0  0  0  0  0  0  0  0
   -0.5480    8.2450   26.7020 C   0  0  0  0  0  0  0  0  0  0  0  0
   -0.4970    9.0770   25.5830 C   0  0  0  0  0  0  0  0  0  0  0  0
  1  2  1  0
  2  3  1  0
  3  4  2  0
  4  5  1  0
  5  6  2  0
  6  7  1  0
  7  8  2  0
  8  9  1  0
  9 10  2  0
  9 11  1  0
 11 12  1  0
 12 13  2  0
 13 14  1  0
 14 15  2  0
 15 16  1  0
 16 17  2  0
 17 18  1  0
 18 19  2  0
 13 20  1  0
 20 21  2  0
 21 22  1  0
 22 23  1  0
 23 24  1  0
 24 25  2  0
 25 26  1  0
 26 27  2  0
 27 28  1  0
 28 29  2  0
  8  3  1  0
 21 11  1  0
 29 24  1  0
 19 14  1  0
M  END
$$$$
