DOKSDSNRXIBXCC-WYMLVPIESA-N
     RDKit          3D

 33 35  0  0  0  0  0  0  0  0999 V2000
   -9.7370  -42.6640   35.2260 C   0  0  0  0  0  0  0  0  0  0  0  0
   -9.5260  -42.0920   33.8330 C   0  0  0  0  0  0  0  0  0  0  0  0
   -9.5900  -43.1260   32.8090 N   0  0  0  0  0  0  0  0  0  0  0  0
   -8.3920  -43.9190   32.5490 C   0  0  0  0  0  0  0  0  0  0  0  0
   -7.1240  -43.1270   32.8310 C   0  0  0  0  0  0  0  0  0  0  0  0
  -10.7760  -43.3040   32.1010 C   0  0  0  0  0  0  0  0  0  0  0  0
  -11.7750  -42.6120   32.2820 O   0  0  0  0  0  0  0  0  0  0  0  0
  -10.7010  -44.3650   31.2030 O   0  0  0  0  0  0  0  0  0  0  0  0
  -11.3550  -44.1100   29.9940 C   0  0  0  0  0  0  0  0  0  0  0  0
  -12.5350  -44.8050   29.7280 C   0  0  0  0  0  0  0  0  0  0  0  0
  -13.1920  -44.5890   28.5180 C   0  0  0  0  0  0  0  0  0  0  0  0
  -12.6620  -43.6940   27.5790 C   0  0  0  0  0  0  0  0  0  0  0  0
  -13.3250  -43.4630   26.2910 C   0  0  0  0  0  0  0  0  0  0  0  0
  -14.4040  -44.1570   25.8990 C   0  0  0  0  0  0  0  0  0  0  0  0
  -15.0570  -43.8290   24.6050 C   0  0  0  0  0  0  0  0  0  0  0  0
  -14.6380  -44.3400   23.5680 O   0  0  0  0  0  0  0  0  0  0  0  0
  -16.1120  -42.9290   24.6350 N   0  0  0  0  0  0  0  0  0  0  0  0
  -16.7500  -42.3790   25.8320 C   0  0  0  0  0  0  0  0  0  0  0  0
  -18.2720  -42.5010   25.7650 C   0  0  0  0  0  0  0  0  0  0  0  0
  -18.8380  -41.9110   24.4620 C   0  0  0  0  0  0  0  0  0  0  0  0
  -20.3610  -42.1120   24.3450 C   0  0  0  0  0  0  0  0  0  0  0  0
  -20.9050  -43.1710   25.2760 C   0  0  0  0  0  0  0  0  0  0  0  0
  -21.5450  -42.8080   26.4690 C   0  0  0  0  0  0  0  0  0  0  0  0
  -22.0390  -43.7860   27.3330 C   0  0  0  0  0  0  0  0  0  0  0  0
  -21.9000  -45.1350   27.0130 C   0  0  0  0  0  0  0  0  0  0  0  0
  -21.2680  -45.5070   25.8280 C   0  0  0  0  0  0  0  0  0  0  0  0
  -20.7720  -44.5300   24.9630 C   0  0  0  0  0  0  0  0  0  0  0  0
  -18.1300  -42.5610   23.2610 C   0  0  0  0  0  0  0  0  0  0  0  0
  -16.6170  -42.4100   23.3650 C   0  0  0  0  0  0  0  0  0  0  0  0
  -11.4540  -43.0290   27.8510 C   0  0  0  0  0  0  0  0  0  0  0  0
  -10.7910  -43.2270   29.0650 C   0  0  0  0  0  0  0  0  0  0  0  0
   -9.6070  -42.6410   29.4260 O   0  0  0  0  0  0  0  0  0  0  0  0
   -8.6510  -42.4400   28.3930 C   0  0  0  0  0  0  0  0  0  0  0  0
  1  2  1  0
  2  3  1  0
  3  4  1  0
  4  5  1  0
  3  6  1  0
  6  7  2  0
  6  8  1  0
  8  9  1  0
  9 10  2  0
 10 11  1  0
 11 12  2  0
 12 13  1  0
 13 14  2  0
 14 15  1  0
 15 16  2  0
 15 17  1  0
 17 18  1  0
 18 19  1  0
 19 20  1  0
 20 21  1  0
 21 22  1  0
 22 23  2  0
 23 24  1  0
 24 25  2  0
 25 26  1  0
 26 27  2  0
 20 28  1  0
 28 29  1  0
 12 30  1  0
 30 31  2  0
 31 32  1  0
 32 33  1  0
 31  9  1  0
 29 17  1  0
 27 22  1  0
M  END
$$$$
