AFMPTOAIHDQTBM-OSYLJGHBSA-N
     RDKit          3D

 30 34  0  0  0  0  0  0  0  0999 V2000
   10.8690  -28.2080   27.3610 C   0  0  0  0  0  0  0  0  0  0  0  0
    9.8800  -27.7700   26.3540 C   0  0  0  0  0  0  0  0  0  0  0  0
    9.6070  -26.5420   25.7950 C   0  0  0  0  0  0  0  0  0  0  0  0
    8.5410  -26.7590   24.8850 C   0  0  0  0  0  0  0  0  0  0  0  0
    8.0240  -25.7470   24.1610 N   0  0  0  0  0  0  0  0  0  0  0  0
    6.9050  -25.6450   23.3350 C   0  0  0  0  0  0  0  0  0  0  0  0
    5.8160  -26.4940   23.3870 C   0  0  0  0  0  0  0  0  0  0  0  0
    4.7560  -26.3230   22.5200 C   0  0  0  0  0  0  0  0  0  0  0  0
    3.7190  -27.1820   22.5930 N   0  0  0  0  0  0  0  0  0  0  0  0
    2.6910  -27.0280   21.7310 C   0  0  0  0  0  0  0  0  0  0  0  0
    2.6390  -26.0380   20.7730 C   0  0  0  0  0  0  0  0  0  0  0  0
    3.7060  -25.1520   20.7030 C   0  0  0  0  0  0  0  0  0  0  0  0
    4.7990  -25.2690   21.5930 C   0  0  0  0  0  0  0  0  0  0  0  0
    5.9250  -24.4170   21.6120 C   0  0  0  0  0  0  0  0  0  0  0  0
    6.0140  -23.3520   20.7170 N   0  0  0  0  0  0  0  0  0  0  0  0
    5.5080  -22.0290   21.0810 C   0  0  2  0  0  0  0  0  0  0  0  0
    4.2680  -21.6840   20.2490 C   0  0  0  0  0  0  0  0  0  0  0  0
    3.9060  -20.1890   20.2550 C   0  0  1  0  0  0  0  0  0  0  0  0
    3.3280  -19.6960   21.5950 C   0  0  0  0  0  0  0  0  0  0  0  0
    4.3530  -19.5500   22.7160 C   0  0  0  0  0  0  0  0  0  0  0  0
    5.7000  -19.0180   22.2310 C   0  0  0  0  0  0  0  0  0  0  0  0
    6.1430  -19.5400   20.8510 C   0  0  1  0  0  0  0  0  0  0  0  0
    6.6270  -21.0030   20.8670 C   0  0  0  0  0  0  0  0  0  0  0  0
    5.0910  -19.4230   19.8290 N   0  0  0  0  0  0  0  0  0  0  0  0
    4.7580  -18.0400   19.4430 C   0  0  0  0  0  0  0  0  0  0  0  0
    3.6290  -17.9280   18.4180 C   0  0  0  0  0  0  0  0  0  0  0  0
    4.0160  -18.5580   17.2730 F   0  0  0  0  0  0  0  0  0  0  0  0
    6.9570  -24.6260   22.4540 N   0  0  0  0  0  0  0  0  0  0  0  0
    8.1810  -28.0440   24.8830 N   0  0  0  0  0  0  0  0  0  0  0  0
    8.9970  -28.6300   25.7690 N   0  0  0  0  0  0  0  0  0  0  0  0
  1  2  1  0
  2  3  2  0
  3  4  1  0
  4  5  1  0
  5  6  1  0
  6  7  2  0
  7  8  1  0
  8  9  2  0
  9 10  1  0
 10 11  2  0
 11 12  1  0
 12 13  2  0
 13 14  1  0
 14 15  1  0
 16 15  1  6
 16 17  1  0
 18 17  1  1
 18 19  1  0
 19 20  1  0
 20 21  1  0
 22 21  1  1
 22 23  1  0
 22 24  1  0
 24 25  1  0
 25 26  1  0
 26 27  1  0
 14 28  2  0
  4 29  2  0
 29 30  1  0
 30  2  1  0
 28  6  1  0
 13  8  1  0
 23 16  1  0
 24 18  1  0
M  END
$$$$
