LBFKCADAEOIHNK-IBGZPJMESA-N
     RDKit          3D

 27 30  0  0  0  0  0  0  0  0999 V2000
   -5.5810   21.1390  -28.0150 C   0  0  0  0  0  0  0  0  0  0  0  0
   -5.0750   20.7320  -29.2860 O   0  0  0  0  0  0  0  0  0  0  0  0
   -3.9770   21.5290  -29.7660 C   0  0  1  0  0  0  0  0  0  0  0  0
   -4.4640   22.5140  -30.8360 C   0  0  0  0  0  0  0  0  0  0  0  0
   -5.0210   22.0510  -32.0280 C   0  0  0  0  0  0  0  0  0  0  0  0
   -5.4880   22.9700  -32.9630 C   0  0  0  0  0  0  0  0  0  0  0  0
   -5.4120   24.3310  -32.6820 C   0  0  0  0  0  0  0  0  0  0  0  0
   -4.8710   24.7250  -31.4660 C   0  0  0  0  0  0  0  0  0  0  0  0
   -4.8040   26.1240  -31.0620 C   0  0  0  0  0  0  0  0  0  0  0  0
   -5.1840   27.1870  -31.8620 C   0  0  0  0  0  0  0  0  0  0  0  0
   -4.9600   28.3470  -31.1660 N   0  0  0  0  0  0  0  0  0  0  0  0
   -5.2230   29.6750  -31.6770 C   0  0  0  0  0  0  0  0  0  0  0  0
   -4.4450   28.0670  -29.9200 C   0  0  0  0  0  0  0  0  0  0  0  0
   -4.0630   28.8960  -28.8720 C   0  0  0  0  0  0  0  0  0  0  0  0
   -3.5780   28.3500  -27.7330 N   0  0  0  0  0  0  0  0  0  0  0  0
   -3.4690   27.0070  -27.6230 C   0  0  0  0  0  0  0  0  0  0  0  0
   -2.9550   26.6000  -26.3920 N   0  0  0  0  0  0  0  0  0  0  0  0
   -1.9740   25.6910  -26.1380 C   0  0  0  0  0  0  0  0  0  0  0  0
   -1.7210   25.5540  -24.8080 N   0  0  0  0  0  0  0  0  0  0  0  0
   -1.3360   25.0220  -26.9400 O   0  0  0  0  0  0  0  0  0  0  0  0
   -3.8320   26.1300  -28.6330 C   0  0  0  0  0  0  0  0  0  0  0  0
   -4.3330   26.6800  -29.8270 C   0  0  0  0  0  0  0  0  0  0  0  0
   -4.4010   23.8390  -30.5560 N   0  0  0  0  0  0  0  0  0  0  0  0
   -3.1660   22.1650  -28.6370 C   0  0  0  0  0  0  0  0  0  0  0  0
   -1.7930   22.3230  -29.2510 C   0  0  0  0  0  0  0  0  0  0  0  0
   -1.6070   21.2080  -30.1340 O   0  0  0  0  0  0  0  0  0  0  0  0
   -2.8940   20.5920  -30.3370 C   0  0  0  0  0  0  0  0  0  0  0  0
  1  2  1  0
  3  2  1  1
  3  4  1  0
  4  5  2  0
  5  6  1  0
  6  7  2  0
  7  8  1  0
  8  9  1  0
  9 10  2  0
 10 11  1  0
 11 12  1  0
 11 13  1  0
 13 14  2  0
 14 15  1  0
 15 16  2  0
 16 17  1  0
 17 18  1  0
 18 19  1  0
 18 20  2  0
 16 21  1  0
 21 22  2  0
  8 23  2  0
  3 24  1  0
 24 25  1  0
 25 26  1  0
 26 27  1  0
 27  3  1  0
 23  4  1  0
 22  9  1  0
 22 13  1  0
M  END
$$$$
