JDXORJMTILPVTL-UHFFFAOYSA-N
     RDKit          3D

 32 36  0  0  0  0  0  0  0  0999 V2000
   12.3100  -25.5160   26.1790 C   0  0  0  0  0  0  0  0  0  0  0  0
   11.0500  -26.1650   25.8940 N   0  0  0  0  0  0  0  0  0  0  0  0
   10.1710  -25.5500   25.0830 N   0  0  0  0  0  0  0  0  0  0  0  0
    9.1230  -26.3900   25.0100 C   0  0  0  0  0  0  0  0  0  0  0  0
    7.9240  -26.1010   24.2140 C   0  0  0  0  0  0  0  0  0  0  0  0
    6.9810  -27.0780   23.9540 C   0  0  0  0  0  0  0  0  0  0  0  0
    5.8680  -26.7770   23.1970 C   0  0  0  0  0  0  0  0  0  0  0  0
    4.9920  -27.7710   22.9650 N   0  0  0  0  0  0  0  0  0  0  0  0
    3.9020  -27.5110   22.2140 C   0  0  0  0  0  0  0  0  0  0  0  0
    3.6330  -26.2780   21.6630 C   0  0  0  0  0  0  0  0  0  0  0  0
    4.5390  -25.2520   21.9070 C   0  0  0  0  0  0  0  0  0  0  0  0
    5.6950  -25.4710   22.6990 C   0  0  0  0  0  0  0  0  0  0  0  0
    6.6980  -24.5270   23.0250 C   0  0  0  0  0  0  0  0  0  0  0  0
    6.6690  -23.1110   22.6130 C   0  0  0  0  0  0  0  0  0  0  0  0
    7.8010  -22.2540   22.4850 C   0  0  0  0  0  0  0  0  0  0  0  0
    7.3050  -21.0230   22.1300 C   0  0  0  0  0  0  0  0  0  0  0  0
    5.9550  -21.1810   22.0560 N   0  0  0  0  0  0  0  0  0  0  0  0
    4.9750  -20.0870   21.7550 C   0  0  1  0  0  0  0  0  0  0  0  0
    4.1200  -19.7730   22.9810 C   0  0  0  0  0  0  0  0  0  0  0  0
    2.7820  -19.2990   22.6050 C   0  0  0  0  0  0  0  0  0  0  0  0
    1.7280  -18.9450   22.2740 N   0  0  0  0  0  0  0  0  0  0  0  0
    5.5930  -18.8990   20.9480 C   0  0  0  0  0  0  0  0  0  0  0  0
    5.2400  -19.6560   19.6410 C   0  0  2  0  0  0  0  0  0  0  0  0
    4.7630  -18.8370   18.5500 C   0  0  0  0  0  0  0  0  0  0  0  0
    4.3700  -18.1750   17.6820 N   0  0  0  0  0  0  0  0  0  0  0  0
    4.1480  -20.3910   20.4570 C   0  0  0  0  0  0  0  0  0  0  0  0
    5.5420  -22.4210   22.3550 N   0  0  0  0  0  0  0  0  0  0  0  0
    7.8010  -24.8360   23.7570 N   0  0  0  0  0  0  0  0  0  0  0  0
    9.3670  -27.5470   25.7980 C   0  0  0  0  0  0  0  0  0  0  0  0
   10.6170  -27.3790   26.3570 C   0  0  0  0  0  0  0  0  0  0  0  0
   11.3910  -28.2510   27.2720 C   0  0  0  0  0  0  0  0  0  0  0  0
   11.1510  -27.8560   28.6500 N   0  0  0  0  0  0  0  0  0  0  0  0
  1  2  1  0
  2  3  1  0
  3  4  2  0
  4  5  1  0
  5  6  2  0
  6  7  1  0
  7  8  2  0
  8  9  1  0
  9 10  2  0
 10 11  1  0
 11 12  2  0
 12 13  1  0
 13 14  1  0
 14 15  1  0
 15 16  2  0
 16 17  1  0
 17 18  1  0
 18 19  1  6
 19 20  1  0
 20 21  3  0
 18 22  1  0
 22 23  1  0
 23 24  1  1
 24 25  3  0
 23 26  1  0
 17 27  1  0
 13 28  2  0
  4 29  1  0
 29 30  2  0
 30 31  1  0
 31 32  1  0
 30  2  1  0
 28  5  1  0
 12  7  1  0
 27 14  2  0
 26 18  1  0
M  END
$$$$
