MRPBGBKPCPJUTC-UHFFFAOYSA-N
     RDKit          3D

 38 42  0  0  0  0  0  0  0  0999 V2000
  134.5490  120.2570   38.1060 C   0  0  0  0  0  0  0  0  0  0  0  0
  134.4630  118.8460   38.2420 O   0  0  0  0  0  0  0  0  0  0  0  0
  133.9650  118.3500   39.4220 C   0  0  0  0  0  0  0  0  0  0  0  0
  133.7630  119.1120   40.5780 C   0  0  0  0  0  0  0  0  0  0  0  0
  133.2460  118.5240   41.7350 C   0  0  0  0  0  0  0  0  0  0  0  0
  132.9240  117.1630   41.7570 C   0  0  0  0  0  0  0  0  0  0  0  0
  132.3470  116.5260   43.0040 C   0  0  0  0  0  0  0  0  0  0  0  0
  132.8890  115.1810   43.2800 N   0  0  0  0  0  0  0  0  0  0  0  0
  132.2140  114.1600   42.4610 C   0  0  0  0  0  0  0  0  0  0  0  0
  132.7210  112.7620   42.8120 C   0  0  0  0  0  0  0  0  0  0  0  0
  134.2380  112.6300   42.6550 C   0  0  0  0  0  0  0  0  0  0  0  0
  134.6280  112.4310   41.2150 C   0  0  0  0  0  0  0  0  0  0  0  0
  133.6320  112.5030   40.2890 O   0  0  0  0  0  0  0  0  0  0  0  0
  134.1860  112.2710   39.0730 C   0  0  0  0  0  0  0  0  0  0  0  0
  133.4870  112.2430   37.8680 C   0  0  0  0  0  0  0  0  0  0  0  0
  134.2300  111.9600   36.7190 C   0  0  0  0  0  0  0  0  0  0  0  0
  135.6010  111.7130   36.7930 C   0  0  0  0  0  0  0  0  0  0  0  0
  136.2760  111.7510   38.0230 C   0  0  0  0  0  0  0  0  0  0  0  0
  135.5520  112.0510   39.1950 C   0  0  0  0  0  0  0  0  0  0  0  0
  135.8460  112.1820   40.5940 C   0  0  0  0  0  0  0  0  0  0  0  0
  137.1120  112.0460   41.2960 C   0  0  0  0  0  0  0  0  0  0  0  0
  137.3780  111.0670   41.9890 O   0  0  0  0  0  0  0  0  0  0  0  0
  138.1280  113.1230   41.1850 C   0  0  0  0  0  0  0  0  0  0  0  0
  139.4840  112.8740   41.4190 C   0  0  0  0  0  0  0  0  0  0  0  0
  140.4130  113.9100   41.2980 C   0  0  0  0  0  0  0  0  0  0  0  0
  139.9970  115.1960   40.9320 C   0  0  0  0  0  0  0  0  0  0  0  0
  140.8370  116.2730   40.7960 O   0  0  0  0  0  0  0  0  0  0  0  0
  141.3300  116.8820   41.9820 C   0  0  0  0  0  0  0  0  0  0  0  0
  138.6320  115.4400   40.6690 C   0  0  0  0  0  0  0  0  0  0  0  0
  138.3080  116.7250   40.3110 O   0  0  0  0  0  0  0  0  0  0  0  0
  137.0620  117.2400   40.7630 C   0  0  0  0  0  0  0  0  0  0  0  0
  137.7060  114.3990   40.7940 C   0  0  0  0  0  0  0  0  0  0  0  0
  134.9580  113.8040   43.3320 C   0  0  0  0  0  0  0  0  0  0  0  0
  134.3370  115.1670   43.0180 C   0  0  0  0  0  0  0  0  0  0  0  0
  133.1240  116.3980   40.5950 C   0  0  0  0  0  0  0  0  0  0  0  0
  133.6440  116.9770   39.4320 C   0  0  0  0  0  0  0  0  0  0  0  0
  133.8730  116.2950   38.2610 O   0  0  0  0  0  0  0  0  0  0  0  0
  135.0650  115.5280   38.1730 C   0  0  0  0  0  0  0  0  0  0  0  0
  1  2  1  0
  2  3  1  0
  3  4  2  0
  4  5  1  0
  5  6  2  0
  6  7  1  0
  7  8  1  0
  8  9  1  0
  9 10  1  0
 10 11  1  0
 11 12  1  0
 12 13  1  0
 13 14  1  0
 14 15  2  0
 15 16  1  0
 16 17  2  0
 17 18  1  0
 18 19  2  0
 19 20  1  0
 20 21  1  0
 21 22  2  0
 21 23  1  0
 23 24  2  0
 24 25  1  0
 25 26  2  0
 26 27  1  0
 27 28  1  0
 26 29  1  0
 29 30  1  0
 30 31  1  0
 29 32  2  0
 11 33  1  0
 33 34  1  0
  6 35  1  0
 35 36  2  0
 36 37  1  0
 37 38  1  0
 36  3  1  0
 34  8  1  0
 20 12  2  0
 32 23  1  0
 19 14  1  0
M  END
$$$$
