KNAGBHSVICAWIT-UHFFFAOYSA-N
     RDKit          3D

 34 38  0  0  0  0  0  0  0  0999 V2000
  -24.6010   20.9690   21.7480 C   0  0  0  0  0  0  0  0  0  0  0  0
  -24.7650   19.4710   21.5310 C   0  0  0  0  0  0  0  0  0  0  0  0
  -23.4810   18.6290   21.6820 C   0  0  0  0  0  0  0  0  0  0  0  0
  -23.1020   18.3770   23.1560 C   0  0  0  0  0  0  0  0  0  0  0  0
  -24.0350   17.3890   23.8470 C   0  0  0  0  0  0  0  0  0  0  0  0
  -22.3880   19.1670   20.8720 N   0  0  0  0  0  0  0  0  0  0  0  0
  -21.1100   19.4660   21.2620 C   0  0  0  0  0  0  0  0  0  0  0  0
  -20.4510   19.9460   20.1460 C   0  0  0  0  0  0  0  0  0  0  0  0
  -19.0890   20.4200   20.0110 C   0  0  0  0  0  0  0  0  0  0  0  0
  -18.1680   19.5260   19.7880 N   0  0  0  0  0  0  0  0  0  0  0  0
  -16.8560   19.9410   19.6190 C   0  0  0  0  0  0  0  0  0  0  0  0
  -15.9330   18.8760   19.3640 C   0  0  0  0  0  0  0  0  0  0  0  0
  -16.1180   17.7370   18.5470 C   0  0  0  0  0  0  0  0  0  0  0  0
  -15.0480   16.9350   18.5260 N   0  0  0  0  0  0  0  0  0  0  0  0
  -14.1740   17.5590   19.3370 N   0  0  0  0  0  0  0  0  0  0  0  0
  -12.8600   16.9800   19.5590 C   0  0  0  0  0  0  0  0  0  0  0  0
  -12.8530   16.0630   20.7880 C   0  0  0  0  0  0  0  0  0  0  0  0
  -12.5870   14.6280   20.5600 N   0  0  0  0  0  0  0  0  0  0  0  0
  -13.7850   13.8970   20.1330 C   0  0  0  0  0  0  0  0  0  0  0  0
  -13.5150   12.3910   20.1030 C   0  0  0  0  0  0  0  0  0  0  0  0
  -12.3210   12.0550   19.2030 C   0  0  0  0  0  0  0  0  0  0  0  0
  -12.0050   10.5590   19.2550 C   0  0  0  0  0  0  0  0  0  0  0  0
  -12.7520    9.8780   18.2550 O   0  0  0  0  0  0  0  0  0  0  0  0
  -11.1060   12.9030   19.6080 C   0  0  0  0  0  0  0  0  0  0  0  0
  -11.4560   14.3900   19.6580 C   0  0  0  0  0  0  0  0  0  0  0  0
  -14.6550   18.7270   19.8610 C   0  0  0  0  0  0  0  0  0  0  0  0
  -16.5040   21.2370   19.6810 C   0  0  0  0  0  0  0  0  0  0  0  0
  -17.4680   22.1940   19.9370 N   0  0  0  0  0  0  0  0  0  0  0  0
  -17.3040   23.5330   20.0530 N   0  0  0  0  0  0  0  0  0  0  0  0
  -18.5150   23.9910   20.3720 C   0  0  0  0  0  0  0  0  0  0  0  0
  -19.4750   22.9700   20.4430 C   0  0  0  0  0  0  0  0  0  0  0  0
  -18.7830   21.8210   20.1280 C   0  0  0  0  0  0  0  0  0  0  0  0
  -21.4490   19.9280   19.1440 C   0  0  0  0  0  0  0  0  0  0  0  0
  -22.6140   19.4380   19.5740 N   0  0  0  0  0  0  0  0  0  0  0  0
  1  2  1  0
  2  3  1  0
  3  4  1  0
  4  5  1  0
  3  6  1  0
  6  7  1  0
  7  8  2  0
  8  9  1  0
  9 10  2  0
 10 11  1  0
 11 12  1  0
 12 13  1  0
 13 14  2  0
 14 15  1  0
 15 16  1  0
 16 17  1  0
 17 18  1  0
 18 19  1  0
 19 20  1  0
 20 21  1  0
 21 22  1  0
 22 23  1  0
 21 24  1  0
 24 25  1  0
 15 26  1  0
 11 27  2  0
 27 28  1  0
 28 29  1  0
 29 30  2  0
 30 31  1  0
 31 32  2  0
  8 33  1  0
 33 34  2  0
 34  6  1  0
 32  9  1  0
 26 12  2  0
 32 28  1  0
 25 18  1  0
M  END
$$$$
