BVBGZXXLVHYBKI-UHFFFAOYSA-N
     RDKit          3D

 30 33  0  0  0  0  0  0  0  0999 V2000
  126.1190  -12.2410  161.8740 N   0  0  0  0  0  0  0  0  0  0  0  0
  126.7520  -13.2920  162.5180 C   0  0  0  0  0  0  0  0  0  0  0  0
  125.9910  -14.2980  163.1100 C   0  0  0  0  0  0  0  0  0  0  0  0
  126.6130  -15.3450  163.7890 C   0  0  0  0  0  0  0  0  0  0  0  0
  128.0020  -15.2880  163.8260 C   0  0  0  0  0  0  0  0  0  0  0  0
  128.9380  -16.1150  164.3890 N   0  0  0  0  0  0  0  0  0  0  0  0
  130.2220  -15.6480  164.1740 C   0  0  0  0  0  0  0  0  0  0  0  0
  131.4210  -16.3550  164.6680 C   0  0  0  0  0  0  0  0  0  0  0  0
  132.3500  -15.6560  165.4570 C   0  0  0  0  0  0  0  0  0  0  0  0
  133.5090  -16.2700  165.9520 C   0  0  0  0  0  0  0  0  0  0  0  0
  134.4850  -15.4940  166.8080 C   0  0  0  0  0  0  0  0  0  0  0  0
  134.2640  -15.6620  168.2930 C   0  0  0  0  0  0  0  0  0  0  0  0
  133.5470  -15.0050  169.0270 O   0  0  0  0  0  0  0  0  0  0  0  0
  134.9520  -16.7140  168.7860 O   0  0  0  0  0  0  0  0  0  0  0  0
  133.7470  -17.6160  165.6470 C   0  0  0  0  0  0  0  0  0  0  0  0
  132.8480  -18.3590  164.8650 C   0  0  0  0  0  0  0  0  0  0  0  0
  133.1610  -19.7650  164.5690 C   0  0  0  0  0  0  0  0  0  0  0  0
  132.7240  -20.7900  165.4260 C   0  0  0  0  0  0  0  0  0  0  0  0
  133.0190  -22.1290  165.1580 C   0  0  0  0  0  0  0  0  0  0  0  0
  133.7610  -22.4680  164.0290 C   0  0  0  0  0  0  0  0  0  0  0  0
  134.2060  -21.4560  163.1680 C   0  0  0  0  0  0  0  0  0  0  0  0
  134.9900  -21.8070  161.9780 N   0  0  0  0  0  0  0  0  0  0  0  0
  134.3810  -22.2700  161.0040 O   0  0  0  0  0  0  0  0  0  0  0  0
  136.2150  -21.6260  162.0210 O   0  0  0  0  0  0  0  0  0  0  0  0
  133.9080  -20.1110  163.4310 C   0  0  0  0  0  0  0  0  0  0  0  0
  131.6840  -17.7150  164.3880 C   0  0  0  0  0  0  0  0  0  0  0  0
  130.7640  -18.4240  163.6420 O   0  0  0  0  0  0  0  0  0  0  0  0
  130.0750  -14.4740  163.4470 C   0  0  0  0  0  0  0  0  0  0  0  0
  128.6960  -14.2470  163.2280 C   0  0  0  0  0  0  0  0  0  0  0  0
  128.0920  -13.2300  162.5700 N   0  0  0  0  0  0  0  0  0  0  0  0
  1  2  1  0
  2  3  2  0
  3  4  1  0
  4  5  2  0
  5  6  1  0
  6  7  1  0
  7  8  1  0
  8  9  2  0
  9 10  1  0
 10 11  1  0
 11 12  1  0
 12 13  2  0
 12 14  1  0
 10 15  2  0
 15 16  1  0
 16 17  1  0
 17 18  2  0
 18 19  1  0
 19 20  2  0
 20 21  1  0
 21 22  1  0
 22 23  2  0
 22 24  1  0
 21 25  2  0
 16 26  2  0
 26 27  1  0
  7 28  2  0
 28 29  1  0
 29 30  2  0
 30  2  1  0
 29  5  1  0
 26  8  1  0
 25 17  1  0
M  CHG  2  22   1  24  -1
M  END
$$$$
