IUPJOGWWGPYLSV-IBGZPJMESA-N
     RDKit          3D

 31 34  0  0  0  0  0  0  0  0999 V2000
   -3.0440   -2.1540  -21.4160 C   0  0  0  0  0  0  0  0  0  0  0  0
   -3.9140   -2.1820  -20.1720 C   0  0  0  0  0  0  0  0  0  0  0  0
   -3.7140   -3.4370  -19.5240 O   0  0  0  0  0  0  0  0  0  0  0  0
   -4.4510   -4.4950  -19.9750 C   0  0  0  0  0  0  0  0  0  0  0  0
   -5.8120   -4.2330  -20.1350 C   0  0  0  0  0  0  0  0  0  0  0  0
   -6.6880   -5.2270  -20.5920 C   0  0  0  0  0  0  0  0  0  0  0  0
   -6.2190   -6.5120  -20.9020 C   0  0  0  0  0  0  0  0  0  0  0  0
   -7.0850   -7.6080  -21.3880 C   0  0  0  0  0  0  0  0  0  0  0  0
   -8.4030   -7.5910  -21.3060 N   0  0  0  0  0  0  0  0  0  0  0  0
   -8.9530   -8.7470  -21.8380 C   0  0  0  0  0  0  0  0  0  0  0  0
  -10.4460   -8.8730  -21.8320 C   0  0  0  0  0  0  0  0  0  0  0  0
  -11.0190   -9.0530  -23.2370 C   0  0  0  0  0  0  0  0  0  0  0  0
  -10.7120   -7.8920  -24.0150 O   0  0  0  0  0  0  0  0  0  0  0  0
  -10.1830   -8.0960  -25.2590 C   0  0  0  0  0  0  0  0  0  0  0  0
  -11.1370   -8.3300  -26.2650 C   0  0  0  0  0  0  0  0  0  0  0  0
  -10.7570   -8.5510  -27.5910 C   0  0  0  0  0  0  0  0  0  0  0  0
   -9.4080   -8.5490  -27.9000 C   0  0  0  0  0  0  0  0  0  0  0  0
   -8.4550   -8.3130  -26.9010 C   0  0  0  0  0  0  0  0  0  0  0  0
   -8.8250   -8.0790  -25.5830 C   0  0  0  0  0  0  0  0  0  0  0  0
   -7.0710   -8.3050  -27.4710 C   0  0  0  0  0  0  0  0  0  0  0  0
   -7.2960   -9.0470  -28.7950 C   0  0  0  0  0  0  0  0  0  0  0  0
   -8.7400   -8.7200  -29.2420 C   0  0  1  0  0  0  0  0  0  0  0  0
   -9.3520   -9.8100  -30.1190 C   0  0  0  0  0  0  0  0  0  0  0  0
  -10.3350   -9.2460  -31.1070 C   0  0  0  0  0  0  0  0  0  0  0  0
  -11.5480   -9.3630  -31.0990 O   0  0  0  0  0  0  0  0  0  0  0  0
   -9.7210   -8.5680  -32.0970 O   0  0  0  0  0  0  0  0  0  0  0  0
   -8.0290   -9.6560  -22.3230 C   0  0  0  0  0  0  0  0  0  0  0  0
   -8.2340  -10.9800  -22.9690 C   0  0  0  0  0  0  0  0  0  0  0  0
   -6.4470   -9.0340  -22.1140 S   0  0  0  0  0  0  0  0  0  0  0  0
   -4.8460   -6.7580  -20.7350 C   0  0  0  0  0  0  0  0  0  0  0  0
   -3.9690   -5.7650  -20.2770 C   0  0  0  0  0  0  0  0  0  0  0  0
  1  2  1  0
  2  3  1  0
  3  4  1  0
  4  5  2  0
  5  6  1  0
  6  7  2  0
  7  8  1  0
  8  9  2  0
  9 10  1  0
 10 11  1  0
 11 12  1  0
 12 13  1  0
 13 14  1  0
 14 15  2  0
 15 16  1  0
 16 17  2  0
 17 18  1  0
 18 19  2  0
 18 20  1  0
 20 21  1  0
 21 22  1  0
 22 23  1  6
 23 24  1  0
 24 25  2  0
 24 26  1  0
 10 27  2  0
 27 28  1  0
 27 29  1  0
  7 30  1  0
 30 31  2  0
 31  4  1  0
 29  8  1  0
 19 14  1  0
 22 17  1  0
M  END
$$$$
