GMPJYOVFXLKIAS-UHFFFAOYSA-N
     RDKit          3D

 31 35  0  0  0  0  0  0  0  0999 V2000
   -0.7880   31.6370  -25.5080 C   0  0  0  0  0  0  0  0  0  0  0  0
   -0.6010   30.8450  -27.0900 S   0  0  0  0  0  0  0  0  0  0  0  0
   -0.4620   29.4200  -26.8860 O   0  0  0  0  0  0  0  0  0  0  0  0
    0.3550   31.5960  -27.8740 O   0  0  0  0  0  0  0  0  0  0  0  0
   -2.1310   31.1110  -27.7720 N   0  0  0  0  0  0  0  0  0  0  0  0
   -3.2760   30.1450  -27.7140 C   0  0  0  0  0  0  0  0  0  0  0  0
   -3.8100   30.7390  -29.0450 C   0  0  0  0  0  0  0  0  0  0  0  0
   -4.8810   31.8090  -28.8700 C   0  0  0  0  0  0  0  0  0  0  0  0
   -4.5180   33.0480  -29.5690 C   0  0  0  0  0  0  0  0  0  0  0  0
   -4.1930   34.0100  -30.1290 N   0  0  0  0  0  0  0  0  0  0  0  0
   -4.2420   29.6650  -29.9610 N   0  0  0  0  0  0  0  0  0  0  0  0
   -5.0370   29.8280  -31.0580 C   0  0  0  0  0  0  0  0  0  0  0  0
   -5.2460   28.5650  -31.5570 C   0  0  0  0  0  0  0  0  0  0  0  0
   -4.5740   27.6890  -30.6660 C   0  0  0  0  0  0  0  0  0  0  0  0
   -4.4820   26.2320  -30.7380 C   0  0  0  0  0  0  0  0  0  0  0  0
   -3.7320   25.5830  -29.7430 C   0  0  0  0  0  0  0  0  0  0  0  0
   -3.5670   24.1990  -29.7620 C   0  0  0  0  0  0  0  0  0  0  0  0
   -2.7820   23.5390  -28.7310 C   0  0  0  0  0  0  0  0  0  0  0  0
   -2.6370   23.8230  -27.3510 C   0  0  0  0  0  0  0  0  0  0  0  0
   -1.8290   22.9620  -26.7260 N   0  0  0  0  0  0  0  0  0  0  0  0
   -1.4520   22.1210  -27.7010 N   0  0  0  0  0  0  0  0  0  0  0  0
   -1.9970   22.4190  -28.9170 C   0  0  0  0  0  0  0  0  0  0  0  0
   -4.1660   23.4730  -30.8000 C   0  0  0  0  0  0  0  0  0  0  0  0
   -4.9280   24.0780  -31.7890 C   0  0  0  0  0  0  0  0  0  0  0  0
   -5.4690   23.2850  -32.7310 N   0  0  0  0  0  0  0  0  0  0  0  0
   -6.2320   23.8510  -33.6890 C   0  0  0  0  0  0  0  0  0  0  0  0
   -6.4940   25.2020  -33.7560 C   0  0  0  0  0  0  0  0  0  0  0  0
   -5.9270   26.0200  -32.7850 C   0  0  0  0  0  0  0  0  0  0  0  0
   -5.1080   25.4780  -31.7670 C   0  0  0  0  0  0  0  0  0  0  0  0
   -3.9610   28.3790  -29.6910 N   0  0  0  0  0  0  0  0  0  0  0  0
   -2.3490   31.2060  -29.2530 C   0  0  0  0  0  0  0  0  0  0  0  0
  1  2  1  0
  2  3  2  0
  2  4  2  0
  2  5  1  0
  5  6  1  0
  6  7  1  0
  7  8  1  0
  8  9  1  0
  9 10  3  0
  7 11  1  0
 11 12  1  0
 12 13  2  0
 13 14  1  0
 14 15  1  0
 15 16  2  0
 16 17  1  0
 17 18  1  0
 18 19  1  0
 19 20  2  0
 20 21  1  0
 21 22  1  0
 17 23  2  0
 23 24  1  0
 24 25  2  0
 25 26  1  0
 26 27  2  0
 27 28  1  0
 28 29  2  0
 14 30  2  0
  7 31  1  0
 31  5  1  0
 30 11  1  0
 29 15  1  0
 22 18  2  0
 29 24  1  0
M  END
$$$$
