CNLKMAASBAEKQE-UHFFFAOYSA-N
     RDKit          3D

 40 43  0  0  0  0  0  0  0  0999 V2000
  -19.5580   19.3580   20.6350 C   0  0  0  0  0  0  0  0  0  0  0  0
  -18.6760   18.2400   20.4520 N   0  0  0  0  0  0  0  0  0  0  0  0
  -17.4460   18.1500   21.0640 C   0  0  0  0  0  0  0  0  0  0  0  0
  -16.9990   19.0150   21.8130 O   0  0  0  0  0  0  0  0  0  0  0  0
  -16.7270   16.9070   20.7430 C   0  0  0  0  0  0  0  0  0  0  0  0
  -17.3970   15.7500   20.5200 N   0  0  0  0  0  0  0  0  0  0  0  0
  -16.4130   14.8580   20.2840 N   0  0  0  0  0  0  0  0  0  0  0  0
  -15.1620   15.3890   20.3380 C   0  0  0  0  0  0  0  0  0  0  0  0
  -14.0150   14.7250   20.1400 N   0  0  0  0  0  0  0  0  0  0  0  0
  -12.9450   15.5310   20.2860 C   0  0  0  0  0  0  0  0  0  0  0  0
  -11.6200   14.9100   20.0810 C   0  0  0  0  0  0  0  0  0  0  0  0
  -10.4790   15.7400   20.1660 C   0  0  0  0  0  0  0  0  0  0  0  0
   -9.2000   15.2240   20.0030 C   0  0  0  0  0  0  0  0  0  0  0  0
   -8.1350   16.0320   20.0990 F   0  0  0  0  0  0  0  0  0  0  0  0
   -9.0130   13.8760   19.7440 C   0  0  0  0  0  0  0  0  0  0  0  0
   -7.7630   13.3550   19.5820 O   0  0  0  0  0  0  0  0  0  0  0  0
  -10.1070   13.0290   19.6420 C   0  0  0  0  0  0  0  0  0  0  0  0
  -11.4200   13.5270   19.8070 C   0  0  0  0  0  0  0  0  0  0  0  0
  -12.5600   12.5340   19.6320 C   0  0  0  0  0  0  0  0  0  0  0  0
  -12.1680   11.2590   18.9030 C   0  0  0  0  0  0  0  0  0  0  0  0
  -11.5190   11.5420   17.7460 F   0  0  0  0  0  0  0  0  0  0  0  0
  -11.3600   10.4600   19.6330 F   0  0  0  0  0  0  0  0  0  0  0  0
  -13.2590   10.5330   18.5620 F   0  0  0  0  0  0  0  0  0  0  0  0
  -12.9680   16.8530   20.5590 N   0  0  0  0  0  0  0  0  0  0  0  0
  -14.1490   17.4930   20.7390 C   0  0  0  0  0  0  0  0  0  0  0  0
  -14.1720   18.8420   20.9890 N   0  0  0  0  0  0  0  0  0  0  0  0
  -13.3250   19.7930   20.2920 C   0  0  0  0  0  0  0  0  0  0  0  0
  -13.8850   21.1950   20.3830 C   0  0  0  0  0  0  0  0  0  0  0  0
  -15.1850   21.3890   20.0060 N   0  0  0  0  0  0  0  0  0  0  0  0
  -15.6300   22.6650   20.0330 C   0  0  0  0  0  0  0  0  0  0  0  0
  -14.8230   23.7200   20.4200 C   0  0  0  0  0  0  0  0  0  0  0  0
  -13.5370   23.5540   20.8030 N   0  0  0  0  0  0  0  0  0  0  0  0
  -13.0820   22.2780   20.7670 C   0  0  0  0  0  0  0  0  0  0  0  0
  -11.7420   22.1240   21.2220 N   0  0  0  0  0  0  0  0  0  0  0  0
  -10.6930   22.5400   20.2770 C   0  0  0  0  0  0  0  0  0  0  0  0
  -11.5120   22.4930   22.8510 S   0  0  0  0  0  0  0  0  0  0  0  0
  -10.1510   21.4510   23.3470 C   0  0  0  0  0  0  0  0  0  0  0  0
  -11.0810   23.8720   22.9610 O   0  0  0  0  0  0  0  0  0  0  0  0
  -12.6830   22.0370   23.5720 O   0  0  0  0  0  0  0  0  0  0  0  0
  -15.3170   16.7260   20.6340 C   0  0  0  0  0  0  0  0  0  0  0  0
  1  2  1  0
  2  3  1  0
  3  4  2  0
  3  5  1  0
  5  6  2  0
  6  7  1  0
  7  8  1  0
  8  9  2  0
  9 10  1  0
 10 11  1  0
 11 12  2  0
 12 13  1  0
 13 14  1  0
 13 15  2  0
 15 16  1  0
 15 17  1  0
 17 18  2  0
 18 19  1  0
 19 20  1  0
 20 21  1  0
 20 22  1  0
 20 23  1  0
 10 24  2  0
 24 25  1  0
 25 26  1  0
 26 27  1  0
 27 28  1  0
 28 29  2  0
 29 30  1  0
 30 31  2  0
 31 32  1  0
 32 33  2  0
 33 34  1  0
 34 35  1  0
 34 36  1  0
 36 37  1  0
 36 38  2  0
 36 39  2  0
 25 40  2  0
 40  5  1  0
 40  8  1  0
 18 11  1  0
 33 28  1  0
M  END
$$$$
