NXIZKFYYHVTHFH-NBEIKUQISA-N
     RDKit          3D

 27 29  0  0  0  0  0  0  0  0999 V2000
   -6.8090   -7.7970  -21.2910 C   0  0  0  0  0  0  0  0  0  0  0  0
   -8.2220   -7.5890  -21.8250 C   0  0  0  0  0  0  0  0  0  0  0  0
   -8.5440   -8.3890  -23.1080 C   0  0  1  0  0  0  0  0  0  0  0  0
   -9.8280   -9.2490  -22.8140 C   0  0  0  0  0  0  0  0  0  0  0  0
  -10.9570   -9.0540  -23.2370 O   0  0  0  0  0  0  0  0  0  0  0  0
   -9.5940  -10.3190  -22.0190 O   0  0  0  0  0  0  0  0  0  0  0  0
   -8.6910   -7.4230  -24.1500 O   0  0  0  0  0  0  0  0  0  0  0  0
   -8.8100   -8.0130  -25.4390 C   0  0  0  0  0  0  0  0  0  0  0  0
   -7.5990   -8.8960  -25.7360 C   0  0  2  0  0  0  0  0  0  0  0  0
   -7.7410   -9.5650  -27.1090 C   0  0  0  0  0  0  0  0  0  0  0  0
   -7.3450   -8.7010  -28.3110 C   0  0  0  0  0  0  0  0  0  0  0  0
   -7.9830   -9.0870  -29.6510 C   0  0  0  0  0  0  0  0  0  0  0  0
   -9.5040   -9.2730  -29.6230 C   0  0  0  0  0  0  0  0  0  0  0  0
  -10.2500   -8.0240  -29.3130 C   0  0  0  0  0  0  0  0  0  0  0  0
  -11.0030   -7.9190  -28.1660 N   0  0  0  0  0  0  0  0  0  0  0  0
  -11.5100   -6.7000  -28.2150 C   0  0  0  0  0  0  0  0  0  0  0  0
  -12.3880   -6.0260  -27.2620 C   0  0  0  0  0  0  0  0  0  0  0  0
  -12.5700   -4.6350  -27.2740 C   0  0  0  0  0  0  0  0  0  0  0  0
  -13.4150   -4.0170  -26.3480 C   0  0  0  0  0  0  0  0  0  0  0  0
  -14.0910   -4.7830  -25.3990 C   0  0  0  0  0  0  0  0  0  0  0  0
  -13.9210   -6.1650  -25.3750 C   0  0  0  0  0  0  0  0  0  0  0  0
  -13.0750   -6.7810  -26.3000 C   0  0  0  0  0  0  0  0  0  0  0  0
  -11.1410   -5.9920  -29.3280 O   0  0  0  0  0  0  0  0  0  0  0  0
  -10.3400   -6.8480  -30.0290 C   0  0  0  0  0  0  0  0  0  0  0  0
   -9.7830   -6.3520  -31.2980 C   0  0  0  0  0  0  0  0  0  0  0  0
   -7.4470   -9.8900  -24.5890 C   0  0  0  0  0  0  0  0  0  0  0  0
   -7.3840   -9.1970  -23.3460 O   0  0  0  0  0  0  0  0  0  0  0  0
  1  2  1  0
  3  2  1  6
  3  4  1  0
  4  5  2  0
  4  6  1  0
  3  7  1  0
  7  8  1  0
  8  9  1  0
  9 10  1  1
 10 11  1  0
 11 12  1  0
 12 13  1  0
 13 14  1  0
 14 15  1  0
 15 16  2  0
 16 17  1  0
 17 18  2  0
 18 19  1  0
 19 20  2  0
 20 21  1  0
 21 22  2  0
 16 23  1  0
 23 24  1  0
 24 25  1  0
  9 26  1  0
 26 27  1  0
 27  3  1  0
 24 14  2  0
 22 17  1  0
M  END
$$$$
