BCFGMOOMADDAQU-UHFFFAOYSA-N
     RDKit          3D

 40 44  0  0  0  0  0  0  0  0999 V2000
   10.8550    4.9770   25.3370 C   0  0  0  0  0  0  0  0  0  0  0  0
   12.5150    5.4990   24.9790 S   0  0  0  0  0  0  0  0  0  0  0  0
   12.9940    4.7080   23.8620 O   0  0  0  0  0  0  0  0  0  0  0  0
   13.2430    5.5340   26.2340 O   0  0  0  0  0  0  0  0  0  0  0  0
   12.2960    7.1800   24.4340 C   0  0  0  0  0  0  0  0  0  0  0  0
   12.5230    8.1440   25.5910 C   0  0  0  0  0  0  0  0  0  0  0  0
   13.9490    8.4210   25.8100 N   0  0  0  0  0  0  0  0  0  0  0  0
   14.5820    9.0220   24.6300 C   0  0  0  0  0  0  0  0  0  0  0  0
   15.7580    8.2140   24.2090 C   0  0  0  0  0  0  0  0  0  0  0  0
   16.8870    8.4900   23.4670 C   0  0  0  0  0  0  0  0  0  0  0  0
   17.6490    7.2970   23.4410 C   0  0  0  0  0  0  0  0  0  0  0  0
   16.9410    6.3550   24.1620 C   0  0  0  0  0  0  0  0  0  0  0  0
   17.1690    4.9590   24.5240 C   0  0  0  0  0  0  0  0  0  0  0  0
   18.2310    4.2420   23.9740 C   0  0  0  0  0  0  0  0  0  0  0  0
   18.4460    2.9050   24.3300 C   0  0  0  0  0  0  0  0  0  0  0  0
   17.6280    2.2430   25.2350 C   0  0  0  0  0  0  0  0  0  0  0  0
   17.8980    0.9670   25.5180 N   0  0  0  0  0  0  0  0  0  0  0  0
   17.0800    0.3610   26.3840 C   0  0  0  0  0  0  0  0  0  0  0  0
   16.0280    0.9110   26.9920 N   0  0  0  0  0  0  0  0  0  0  0  0
   15.7720    2.2040   26.7200 C   0  0  0  0  0  0  0  0  0  0  0  0
   14.6790    2.8330   27.3590 N   0  0  0  0  0  0  0  0  0  0  0  0
   13.6610    2.3130   28.1770 C   0  0  0  0  0  0  0  0  0  0  0  0
   12.4160    1.9040   27.6900 C   0  0  0  0  0  0  0  0  0  0  0  0
   11.4140    1.4240   28.5460 C   0  0  0  0  0  0  0  0  0  0  0  0
   11.6270    1.3620   29.9220 C   0  0  0  0  0  0  0  0  0  0  0  0
   10.7160    0.9030   30.8360 O   0  0  0  0  0  0  0  0  0  0  0  0
   10.6790   -0.4920   31.1390 C   0  0  0  0  0  0  0  0  0  0  0  0
    9.3430   -0.9490   31.6820 C   0  0  0  0  0  0  0  0  0  0  0  0
    9.0340   -2.3200   31.7140 C   0  0  0  0  0  0  0  0  0  0  0  0
    7.7900   -2.7590   32.1780 C   0  0  0  0  0  0  0  0  0  0  0  0
    6.8420   -1.8330   32.6070 C   0  0  0  0  0  0  0  0  0  0  0  0
    7.1400   -0.4770   32.5630 C   0  0  0  0  0  0  0  0  0  0  0  0
    6.2220    0.4120   32.9670 F   0  0  0  0  0  0  0  0  0  0  0  0
    8.3730   -0.0290   32.1010 C   0  0  0  0  0  0  0  0  0  0  0  0
   12.8710    1.7740   30.4200 C   0  0  0  0  0  0  0  0  0  0  0  0
   13.2220    1.7280   32.1150 Cl  0  0  0  0  0  0  0  0  0  0  0  0
   13.8690    2.2500   29.5610 C   0  0  0  0  0  0  0  0  0  0  0  0
   16.5560    2.9400   25.8080 C   0  0  0  0  0  0  0  0  0  0  0  0
   16.3370    4.2950   25.4350 C   0  0  0  0  0  0  0  0  0  0  0  0
   15.7840    6.9150   24.6280 O   0  0  0  0  0  0  0  0  0  0  0  0
  1  2  1  0
  2  3  2  0
  2  4  2  0
  2  5  1  0
  5  6  1  0
  6  7  1  0
  7  8  1  0
  8  9  1  0
  9 10  2  0
 10 11  1  0
 11 12  2  0
 12 13  1  0
 13 14  2  0
 14 15  1  0
 15 16  2  0
 16 17  1  0
 17 18  2  0
 18 19  1  0
 19 20  2  0
 20 21  1  0
 21 22  1  0
 22 23  2  0
 23 24  1  0
 24 25  2  0
 25 26  1  0
 26 27  1  0
 27 28  1  0
 28 29  2  0
 29 30  1  0
 30 31  2  0
 31 32  1  0
 32 33  1  0
 32 34  2  0
 25 35  1  0
 35 36  1  0
 35 37  2  0
 20 38  1  0
 38 39  2  0
 12 40  1  0
 40  9  1  0
 39 13  1  0
 38 16  1  0
 37 22  1  0
 34 28  1  0
M  END
$$$$
