RHZKAWSSJKSGEO-UHFFFAOYSA-N
     RDKit          3D

 29 32  0  0  0  0  0  0  0  0999 V2000
  135.1350  118.9400   40.2930 C   0  0  0  0  0  0  0  0  0  0  0  0
  134.5790  118.8020   38.9930 O   0  0  0  0  0  0  0  0  0  0  0  0
  134.4770  117.5330   38.4720 C   0  0  0  0  0  0  0  0  0  0  0  0
  134.8030  116.3640   39.1790 C   0  0  0  0  0  0  0  0  0  0  0  0
  134.6580  115.1390   38.5470 C   0  0  0  0  0  0  0  0  0  0  0  0
  134.2060  115.0890   37.2380 C   0  0  0  0  0  0  0  0  0  0  0  0
  133.8800  116.2140   36.5030 C   0  0  0  0  0  0  0  0  0  0  0  0
  134.0160  117.4570   37.1270 C   0  0  0  0  0  0  0  0  0  0  0  0
  133.7280  118.6580   36.5250 O   0  0  0  0  0  0  0  0  0  0  0  0
  133.3590  118.6320   35.1530 C   0  0  0  0  0  0  0  0  0  0  0  0
  134.1400  113.6930   36.8260 C   0  0  0  0  0  0  0  0  0  0  0  0
  133.8420  113.3340   35.7020 O   0  0  0  0  0  0  0  0  0  0  0  0
  134.4550  112.8040   38.0180 C   0  0  1  0  0  0  0  0  0  0  0  0
  135.4410  111.6950   37.6420 C   0  0  0  0  0  0  0  0  0  0  0  0
  136.7500  111.6860   38.4550 C   0  0  0  0  0  0  0  0  0  0  0  0
  137.6960  112.8300   38.0650 C   0  0  0  0  0  0  0  0  0  0  0  0
  138.9290  112.8740   38.9720 C   0  0  0  0  0  0  0  0  0  0  0  0
  138.5550  112.9850   40.3870 N   0  0  0  0  0  0  0  0  0  0  0  0
  139.7630  113.1090   41.2210 C   0  0  0  0  0  0  0  0  0  0  0  0
  140.2130  114.5400   41.4280 C   0  0  0  0  0  0  0  0  0  0  0  0
  141.5910  114.8240   41.4820 C   0  0  0  0  0  0  0  0  0  0  0  0
  142.0500  116.1270   41.6810 C   0  0  0  0  0  0  0  0  0  0  0  0
  141.1420  117.1710   41.8280 C   0  0  0  0  0  0  0  0  0  0  0  0
  139.7730  116.9090   41.7740 C   0  0  0  0  0  0  0  0  0  0  0  0
  139.3090  115.6050   41.5760 C   0  0  0  0  0  0  0  0  0  0  0  0
  137.5970  115.3730   41.5010 Cl  0  0  0  0  0  0  0  0  0  0  0  0
  137.7100  111.8570   40.7990 C   0  0  0  0  0  0  0  0  0  0  0  0
  136.4370  111.7820   39.9550 C   0  0  0  0  0  0  0  0  0  0  0  0
  134.9860  113.7840   39.0900 C   0  0  0  0  0  0  0  0  0  0  0  0
  1  2  1  0
  2  3  1  0
  3  4  2  0
  4  5  1  0
  5  6  2  0
  6  7  1  0
  7  8  2  0
  8  9  1  0
  9 10  1  0
  6 11  1  0
 11 12  2  0
 11 13  1  0
 13 14  1  6
 14 15  1  0
 15 16  1  0
 16 17  1  0
 17 18  1  0
 18 19  1  0
 19 20  1  0
 20 21  2  0
 21 22  1  0
 22 23  2  0
 23 24  1  0
 24 25  2  0
 25 26  1  0
 18 27  1  0
 27 28  1  0
 13 29  1  0
  8  3  1  0
 28 15  1  0
 29  5  1  0
 25 20  1  0
M  END
$$$$
