XYFPWWZEPKGCCK-GOSISDBHSA-N
     RDKit          3D

 33 37  0  0  0  0  0  0  0  0999 V2000
   19.3250    3.6910   20.8650 C   0  0  0  0  0  0  0  0  0  0  0  0
   18.4710    3.8240   21.8880 C   0  0  0  0  0  0  0  0  0  0  0  0
   17.2750    4.6920   21.7860 C   0  0  0  0  0  0  0  0  0  0  0  0
   16.9570    5.1050   20.6740 O   0  0  0  0  0  0  0  0  0  0  0  0
   16.5940    5.0050   22.9470 N   0  0  0  0  0  0  0  0  0  0  0  0
   16.2020    6.3470   23.3810 C   0  0  0  0  0  0  0  0  0  0  0  0
   16.6310    6.5910   24.8260 C   0  0  0  0  0  0  0  0  0  0  0  0
   16.0950    5.5000   25.7560 C   0  0  0  0  0  0  0  0  0  0  0  0
   16.4870    4.1020   25.2480 C   0  0  1  0  0  0  0  0  0  0  0  0
   15.9840    3.0420   26.1100 N   0  0  0  0  0  0  0  0  0  0  0  0
   14.9260    3.2920   26.9090 N   0  0  0  0  0  0  0  0  0  0  0  0
   14.6960    2.1240   27.5320 C   0  0  0  0  0  0  0  0  0  0  0  0
   13.5830    1.9990   28.4660 C   0  0  0  0  0  0  0  0  0  0  0  0
   12.2770    1.7960   27.9940 C   0  0  0  0  0  0  0  0  0  0  0  0
   11.2150    1.6770   28.8940 C   0  0  0  0  0  0  0  0  0  0  0  0
   11.4540    1.7840   30.2660 C   0  0  0  0  0  0  0  0  0  0  0  0
   10.4530    1.6450   31.1980 O   0  0  0  0  0  0  0  0  0  0  0  0
    9.8000    0.4320   31.2460 C   0  0  0  0  0  0  0  0  0  0  0  0
   10.4630   -0.7850   31.4220 C   0  0  0  0  0  0  0  0  0  0  0  0
    9.7380   -1.9760   31.4250 C   0  0  0  0  0  0  0  0  0  0  0  0
    8.3560   -1.9540   31.2350 C   0  0  0  0  0  0  0  0  0  0  0  0
    7.6970   -0.7400   31.0360 C   0  0  0  0  0  0  0  0  0  0  0  0
    8.4210    0.4540   31.0350 C   0  0  0  0  0  0  0  0  0  0  0  0
   12.7500    1.9730   30.7440 C   0  0  0  0  0  0  0  0  0  0  0  0
   13.8110    2.0930   29.8450 C   0  0  0  0  0  0  0  0  0  0  0  0
   15.6420    1.1300   27.1450 C   0  0  0  0  0  0  0  0  0  0  0  0
   15.9510   -0.2020   27.4460 C   0  0  0  0  0  0  0  0  0  0  0  0
   15.3060   -0.9670   28.3870 N   0  0  0  0  0  0  0  0  0  0  0  0
   16.9700   -0.7930   26.7850 N   0  0  0  0  0  0  0  0  0  0  0  0
   17.6590   -0.0710   25.8810 C   0  0  0  0  0  0  0  0  0  0  0  0
   17.4700    1.2110   25.5290 N   0  0  0  0  0  0  0  0  0  0  0  0
   16.4440    1.7570   26.2050 C   0  0  0  0  0  0  0  0  0  0  0  0
   16.0800    3.9100   23.7800 C   0  0  0  0  0  0  0  0  0  0  0  0
  1  2  2  0
  2  3  1  0
  3  4  2  0
  3  5  1  0
  5  6  1  0
  6  7  1  0
  7  8  1  0
  8  9  1  0
  9 10  1  1
 10 11  1  0
 11 12  2  0
 12 13  1  0
 13 14  2  0
 14 15  1  0
 15 16  2  0
 16 17  1  0
 17 18  1  0
 18 19  2  0
 19 20  1  0
 20 21  2  0
 21 22  1  0
 22 23  2  0
 16 24  1  0
 24 25  2  0
 12 26  1  0
 26 27  2  0
 27 28  1  0
 27 29  1  0
 29 30  2  0
 30 31  1  0
 31 32  2  0
  9 33  1  0
 33  5  1  0
 32 10  1  0
 25 13  1  0
 32 26  1  0
 23 18  1  0
M  END
$$$$
