TUYPRUOSDMDIKE-UHFFFAOYSA-N
     RDKit          3D

 46 51  0  0  0  0  0  0  0  0999 V2000
   -4.8620   21.4640   23.7360 C   0  0  0  0  0  0  0  0  0  0  0  0
   -4.1580   20.1940   23.8350 N   0  0  0  0  0  0  0  0  0  0  0  0
   -3.9930   19.6560   25.1760 C   0  0  0  0  0  0  0  0  0  0  0  0
   -3.6270   19.6270   22.6810 C   0  0  0  0  0  0  0  0  0  0  0  0
   -3.8020   20.1240   21.5630 O   0  0  0  0  0  0  0  0  0  0  0  0
   -2.8030   18.3340   22.8010 C   0  0  0  0  0  0  0  0  0  0  0  0
   -3.5080   17.1630   22.2250 N   0  0  0  0  0  0  0  0  0  0  0  0
   -3.2870   17.0440   20.7630 C   0  0  0  0  0  0  0  0  0  0  0  0
   -4.5570   17.0450   19.8880 C   0  0  0  0  0  0  0  0  0  0  0  0
   -5.5800   16.1300   20.3980 N   0  0  0  0  0  0  0  0  0  0  0  0
   -6.2840   15.3250   19.5040 C   0  0  0  0  0  0  0  0  0  0  0  0
   -6.0410   15.3470   18.2940 O   0  0  0  0  0  0  0  0  0  0  0  0
   -7.3190   14.3850   20.0930 C   0  0  0  0  0  0  0  0  0  0  0  0
   -8.6460   14.9720   20.1320 N   0  0  0  0  0  0  0  0  0  0  0  0
   -8.9440   16.3020   20.0730 C   0  0  0  0  0  0  0  0  0  0  0  0
  -10.3130   16.3870   20.0430 C   0  0  0  0  0  0  0  0  0  0  0  0
  -11.1020   17.5200   19.9710 N   0  0  0  0  0  0  0  0  0  0  0  0
  -10.9960   18.5340   19.0410 C   0  0  0  0  0  0  0  0  0  0  0  0
  -10.2100   18.5670   18.0970 O   0  0  0  0  0  0  0  0  0  0  0  0
  -11.9620   19.6020   19.2380 C   0  0  0  0  0  0  0  0  0  0  0  0
  -11.7010   20.9380   19.6070 C   0  0  0  0  0  0  0  0  0  0  0  0
  -12.8020   21.6850   19.7050 N   0  0  0  0  0  0  0  0  0  0  0  0
  -13.8100   20.8340   19.3980 N   0  0  0  0  0  0  0  0  0  0  0  0
  -15.1740   21.1070   19.3630 C   0  0  0  0  0  0  0  0  0  0  0  0
  -16.0520   20.1450   19.0450 C   0  0  0  0  0  0  0  0  0  0  0  0
  -15.4540   18.8170   18.7350 C   0  0  0  0  0  0  0  0  0  0  0  0
  -14.1850   18.5220   18.7620 N   0  0  0  0  0  0  0  0  0  0  0  0
  -13.3390   19.5490   19.1050 C   0  0  0  0  0  0  0  0  0  0  0  0
  -10.7650   15.0310   20.0890 C   0  0  0  0  0  0  0  0  0  0  0  0
  -12.1470   14.5580   20.1150 C   0  0  0  0  0  0  0  0  0  0  0  0
  -13.1790   15.4760   20.3710 C   0  0  0  0  0  0  0  0  0  0  0  0
  -14.5250   15.0780   20.3420 C   0  0  0  0  0  0  0  0  0  0  0  0
  -15.5600   15.9940   20.5890 C   0  0  0  0  0  0  0  0  0  0  0  0
  -16.8950   15.5900   20.5390 C   0  0  0  0  0  0  0  0  0  0  0  0
  -17.2110   14.2650   20.2410 C   0  0  0  0  0  0  0  0  0  0  0  0
  -16.1920   13.3410   20.0030 C   0  0  0  0  0  0  0  0  0  0  0  0
  -14.8460   13.7310   20.0500 C   0  0  0  0  0  0  0  0  0  0  0  0
  -13.8120   12.8130   19.8130 C   0  0  0  0  0  0  0  0  0  0  0  0
  -12.4750   13.2200   19.8630 C   0  0  0  0  0  0  0  0  0  0  0  0
  -11.5130   12.2910   19.5640 O   0  0  0  0  0  0  0  0  0  0  0  0
  -12.1100   11.1910   18.8840 C   0  0  0  0  0  0  0  0  0  0  0  0
  -11.6600   10.0520   19.4790 F   0  0  0  0  0  0  0  0  0  0  0  0
  -11.6330   11.1670   17.6110 F   0  0  0  0  0  0  0  0  0  0  0  0
   -9.7330   14.1710   20.0890 N   0  0  0  0  0  0  0  0  0  0  0  0
   -5.7610   16.1250   21.8530 C   0  0  0  0  0  0  0  0  0  0  0  0
   -4.9400   17.2140   22.5680 C   0  0  0  0  0  0  0  0  0  0  0  0
  1  2  1  0
  2  3  1  0
  2  4  1  0
  4  5  2  0
  4  6  1  0
  6  7  1  0
  7  8  1  0
  8  9  1  0
  9 10  1  0
 10 11  1  0
 11 12  2  0
 11 13  1  0
 13 14  1  0
 14 15  1  0
 15 16  2  0
 16 17  1  0
 17 18  1  0
 18 19  2  0
 18 20  1  0
 20 21  1  0
 21 22  2  0
 22 23  1  0
 23 24  1  0
 24 25  2  0
 25 26  1  0
 26 27  2  0
 27 28  1  0
 16 29  1  0
 29 30  1  0
 30 31  2  0
 31 32  1  0
 32 33  2  0
 33 34  1  0
 34 35  2  0
 35 36  1  0
 36 37  2  0
 37 38  1  0
 38 39  2  0
 39 40  1  0
 40 41  1  0
 41 42  1  0
 41 43  1  0
 29 44  2  0
 10 45  1  0
 45 46  1  0
 46  7  1  0
 44 14  1  0
 28 20  2  0
 39 30  1  0
 28 23  1  0
 37 32  1  0
M  END
$$$$
