HIWJANFZFXOFCC-BTZRARBUSA-N
     RDKit          3D

 39 45  0  0  0  0  0  0  0  0999 V2000
   16.4770    7.0280   25.5030 C   0  0  0  0  0  0  0  0  0  0  0  0
   17.1040    7.4380   24.3930 C   0  0  0  0  0  0  0  0  0  0  0  0
   16.7580    6.8500   23.0720 C   0  0  0  0  0  0  0  0  0  0  0  0
   15.7770    7.2470   22.4470 O   0  0  0  0  0  0  0  0  0  0  0  0
   17.5770    5.8580   22.5950 N   0  0  0  0  0  0  0  0  0  0  0  0
   18.9930    5.8320   22.9380 C   0  0  0  0  0  0  0  0  0  0  0  0
   19.4420    4.4980   22.3130 C   0  0  1  0  0  0  0  0  0  0  0  0
   18.8240    3.3300   23.1110 C   0  0  0  0  0  0  0  0  0  0  0  0
   17.3170    3.4030   22.7290 C   0  0  1  0  0  0  0  0  0  0  0  0
   16.3580    3.4550   23.8080 N   0  0  0  0  0  0  0  0  0  0  0  0
   15.2880    4.2710   23.7590 N   0  0  0  0  0  0  0  0  0  0  0  0
   14.5740    3.9470   24.8510 C   0  0  0  0  0  0  0  0  0  0  0  0
   13.2680    4.5580   25.0670 C   0  0  0  0  0  0  0  0  0  0  0  0
   12.1070    3.9210   24.6140 C   0  0  0  0  0  0  0  0  0  0  0  0
   10.8610    4.5180   24.8040 C   0  0  0  0  0  0  0  0  0  0  0  0
   10.7690    5.7720   25.4190 C   0  0  0  0  0  0  0  0  0  0  0  0
    9.5540    6.3930   25.6300 O   0  0  0  0  0  0  0  0  0  0  0  0
    9.0970    7.2270   24.6310 C   0  0  0  0  0  0  0  0  0  0  0  0
    9.9690    7.8070   23.7030 C   0  0  0  0  0  0  0  0  0  0  0  0
    9.4920    8.6550   22.6970 C   0  0  0  0  0  0  0  0  0  0  0  0
    8.1140    8.8990   22.6780 C   0  0  0  0  0  0  0  0  0  0  0  0
    7.2340    8.3530   23.6120 C   0  0  0  0  0  0  0  0  0  0  0  0
    7.7280    7.5110   24.6190 C   0  0  0  0  0  0  0  0  0  0  0  0
    5.9430    8.7570   23.3680 N   0  0  0  0  0  0  0  0  0  0  0  0
    6.0180    9.5280   22.3090 C   0  0  0  0  0  0  0  0  0  0  0  0
    7.3030    9.6450   21.8600 N   0  0  0  0  0  0  0  0  0  0  0  0
    7.7260   10.4280   20.7240 C   0  0  0  0  0  0  0  0  0  0  0  0
   11.9210    6.4190   25.8930 C   0  0  0  0  0  0  0  0  0  0  0  0
   11.8340    7.7620   26.5590 C   0  0  0  0  0  0  0  0  0  0  0  0
   13.1690    5.8060   25.6990 C   0  0  0  0  0  0  0  0  0  0  0  0
   15.2610    2.9920   25.6590 C   0  0  0  0  0  0  0  0  0  0  0  0
   15.0920    2.3270   26.8830 C   0  0  0  0  0  0  0  0  0  0  0  0
   13.9390    2.5140   27.8210 C   0  0  0  0  0  0  0  0  0  0  0  0
   16.0460    1.4250   27.2560 N   0  0  0  0  0  0  0  0  0  0  0  0
   17.1120    1.2300   26.4560 C   0  0  0  0  0  0  0  0  0  0  0  0
   17.3740    1.8190   25.2770 N   0  0  0  0  0  0  0  0  0  0  0  0
   16.4090    2.6960   24.9450 C   0  0  0  0  0  0  0  0  0  0  0  0
   17.2810    4.6500   21.8050 C   0  0  2  0  0  0  0  0  0  0  0  0
   18.5970    4.4790   21.0370 C   0  0  0  0  0  0  0  0  0  0  0  0
  1  2  2  0
  2  3  1  0
  3  4  2  0
  3  5  1  0
  5  6  1  0
  7  6  1  1
  7  8  1  0
  8  9  1  0
  9 10  1  1
 10 11  1  0
 11 12  2  0
 12 13  1  0
 13 14  2  0
 14 15  1  0
 15 16  2  0
 16 17  1  0
 17 18  1  0
 18 19  1  0
 19 20  2  0
 20 21  1  0
 21 22  2  0
 22 23  1  0
 22 24  1  0
 24 25  2  0
 25 26  1  0
 26 27  1  0
 16 28  1  0
 28 29  1  0
 28 30  2  0
 12 31  1  0
 31 32  2  0
 32 33  1  0
 32 34  1  0
 34 35  2  0
 35 36  1  0
 36 37  2  0
  9 38  1  0
 38 39  1  0
 38  5  1  1
 39  7  1  0
 37 10  1  0
 30 13  1  0
 37 31  1  0
 23 18  2  0
 26 21  1  0
M  END
$$$$
