IIBGSSDECOOUPY-DNVCBOLYSA-N
     RDKit          3D

 34 38  0  0  0  0  0  0  0  0999 V2000
   -8.2100   17.9090   20.5830 C   0  0  0  0  0  0  0  0  0  0  0  0
   -8.2820   16.4410   20.2690 C   0  0  0  0  0  0  0  0  0  0  0  0
   -9.5340   15.8190   20.1150 C   0  0  0  0  0  0  0  0  0  0  0  0
   -9.6570   14.4430   19.8390 C   0  0  0  0  0  0  0  0  0  0  0  0
  -10.9500   13.9070   19.6640 N   0  0  0  0  0  0  0  0  0  0  0  0
  -12.1850   14.4480   19.7940 C   0  0  0  0  0  0  0  0  0  0  0  0
  -12.5280   15.7420   19.8540 N   0  0  0  0  0  0  0  0  0  0  0  0
  -13.8720   15.7590   20.0150 N   0  0  0  0  0  0  0  0  0  0  0  0
  -14.4880   17.0600   20.1370 C   0  0  2  0  0  0  0  0  0  0  0  0
  -15.5600   17.2300   21.2240 C   0  0  0  0  0  0  0  0  0  0  0  0
  -16.6880   17.9460   20.5160 C   0  0  0  0  0  0  0  0  0  0  0  0
  -17.3570   18.7640   21.3450 F   0  0  0  0  0  0  0  0  0  0  0  0
  -17.5700   17.0360   20.0450 F   0  0  0  0  0  0  0  0  0  0  0  0
  -16.0560   18.7010   19.3660 C   0  0  0  0  0  0  0  0  0  0  0  0
  -15.0170   17.7090   18.8420 C   0  0  2  0  0  0  0  0  0  0  0  0
  -15.6250   16.7730   17.8850 C   0  0  0  0  0  0  0  0  0  0  0  0
  -16.1290   16.0610   17.1200 N   0  0  0  0  0  0  0  0  0  0  0  0
  -14.3980   14.5010   20.0430 C   0  0  0  0  0  0  0  0  0  0  0  0
  -15.7440   14.0900   20.1650 C   0  0  0  0  0  0  0  0  0  0  0  0
  -15.9390   12.7570   20.1370 C   0  0  0  0  0  0  0  0  0  0  0  0
  -14.8920   11.8550   20.0140 N   0  0  0  0  0  0  0  0  0  0  0  0
  -13.5510   12.2120   19.8930 C   0  0  0  0  0  0  0  0  0  0  0  0
  -12.6480   11.3870   19.7900 O   0  0  0  0  0  0  0  0  0  0  0  0
  -13.3320   13.6390   19.9050 C   0  0  0  0  0  0  0  0  0  0  0  0
   -8.4850   13.6890   19.7280 C   0  0  0  0  0  0  0  0  0  0  0  0
   -7.2300   14.2820   19.8950 C   0  0  0  0  0  0  0  0  0  0  0  0
   -7.1290   15.6520   20.1520 C   0  0  0  0  0  0  0  0  0  0  0  0
   -5.7820   16.2430   20.3330 C   0  0  0  0  0  0  0  0  0  0  0  0
   -5.3010   16.2850   21.4620 O   0  0  0  0  0  0  0  0  0  0  0  0
   -5.1380   16.7300   19.2120 N   0  0  0  0  0  0  0  0  0  0  0  0
   -3.8090   17.3030   19.3070 C   0  0  0  0  0  0  0  0  0  0  0  0
   -3.3900   17.5340   17.8600 C   0  0  0  0  0  0  0  0  0  0  0  0
   -4.7180   17.8070   17.1630 C   0  0  0  0  0  0  0  0  0  0  0  0
   -5.6720   16.8470   17.8610 C   0  0  0  0  0  0  0  0  0  0  0  0
  1  2  1  0
  2  3  2  0
  3  4  1  0
  4  5  1  0
  5  6  1  0
  6  7  2  0
  7  8  1  0
  9  8  1  6
  9 10  1  0
 10 11  1  0
 11 12  1  0
 11 13  1  0
 11 14  1  0
 14 15  1  0
 15 16  1  6
 16 17  3  0
  8 18  1  0
 18 19  1  0
 19 20  2  0
 20 21  1  0
 21 22  1  0
 22 23  2  0
 22 24  1  0
  4 25  2  0
 25 26  1  0
 26 27  2  0
 27 28  1  0
 28 29  2  0
 28 30  1  0
 30 31  1  0
 31 32  1  0
 32 33  1  0
 33 34  1  0
 27  2  1  0
 34 30  1  0
 24  6  1  0
 15  9  1  0
 24 18  2  0
M  END
$$$$
