QMHIQYFDHQKWPO-IBGZPJMESA-N
     RDKit          3D

 31 34  0  0  0  0  0  0  0  0999 V2000
   -8.9580   13.4390   19.6970 C   0  0  0  0  0  0  0  0  0  0  0  0
  -10.2640   14.2250   19.6960 C   0  0  0  0  0  0  0  0  0  0  0  0
  -11.5100   13.3290   19.8480 C   0  0  0  0  0  0  0  0  0  0  0  0
  -11.5840   12.2230   18.7760 C   0  0  0  0  0  0  0  0  0  0  0  0
  -11.7610   10.8260   19.3530 C   0  0  0  0  0  0  0  0  0  0  0  0
  -12.7480   14.1120   19.8400 N   0  0  0  0  0  0  0  0  0  0  0  0
  -12.8880   15.4520   20.0890 C   0  0  0  0  0  0  0  0  0  0  0  0
  -14.2340   15.7440   19.9610 C   0  0  0  0  0  0  0  0  0  0  0  0
  -14.9230   17.0110   20.0980 C   0  0  0  0  0  0  0  0  0  0  0  0
  -15.9920   17.0260   20.8420 N   0  0  0  0  0  0  0  0  0  0  0  0
  -16.7020   18.2090   20.9710 C   0  0  0  0  0  0  0  0  0  0  0  0
  -17.8650   18.1080   21.8020 C   0  0  0  0  0  0  0  0  0  0  0  0
  -17.9760   17.5160   23.0810 C   0  0  0  0  0  0  0  0  0  0  0  0
  -19.2150   17.5880   23.5790 N   0  0  0  0  0  0  0  0  0  0  0  0
  -19.9030   18.2290   22.6130 N   0  0  0  0  0  0  0  0  0  0  0  0
  -21.3120   18.5080   22.8040 C   0  0  0  0  0  0  0  0  0  0  0  0
  -22.0200   19.0360   21.5540 C   0  0  1  0  0  0  0  0  0  0  0  0
  -22.7320   17.9760   20.8970 O   0  0  0  0  0  0  0  0  0  0  0  0
  -22.9880   20.2110   21.8200 C   0  0  0  0  0  0  0  0  0  0  0  0
  -22.7180   21.3490   20.9010 N   0  0  0  0  0  0  0  0  0  0  0  0
  -21.3470   21.2460   20.3860 C   0  0  0  0  0  0  0  0  0  0  0  0
  -23.6560   21.3630   19.7720 C   0  0  0  0  0  0  0  0  0  0  0  0
  -19.1380   18.5650   21.5330 C   0  0  0  0  0  0  0  0  0  0  0  0
  -16.3210   19.3420   20.3540 C   0  0  0  0  0  0  0  0  0  0  0  0
  -15.1780   19.3450   19.5800 N   0  0  0  0  0  0  0  0  0  0  0  0
  -14.6280   20.3810   18.9020 N   0  0  0  0  0  0  0  0  0  0  0  0
  -13.5060   19.8860   18.3820 C   0  0  0  0  0  0  0  0  0  0  0  0
  -13.3240   18.5280   18.6920 C   0  0  0  0  0  0  0  0  0  0  0  0
  -14.4320   18.1910   19.4370 C   0  0  0  0  0  0  0  0  0  0  0  0
  -14.8030   14.5000   19.5940 C   0  0  0  0  0  0  0  0  0  0  0  0
  -13.9110   13.5100   19.5380 N   0  0  0  0  0  0  0  0  0  0  0  0
  1  2  1  0
  2  3  1  0
  3  4  1  0
  4  5  1  0
  3  6  1  0
  6  7  1  0
  7  8  2  0
  8  9  1  0
  9 10  2  0
 10 11  1  0
 11 12  1  0
 12 13  1  0
 13 14  2  0
 14 15  1  0
 15 16  1  0
 16 17  1  0
 17 18  1  1
 17 19  1  0
 19 20  1  0
 20 21  1  0
 20 22  1  0
 15 23  1  0
 11 24  2  0
 24 25  1  0
 25 26  1  0
 26 27  2  0
 27 28  1  0
 28 29  2  0
  8 30  1  0
 30 31  2  0
 31  6  1  0
 29  9  1  0
 23 12  2  0
 29 25  1  0
M  END
$$$$
