BPBQNJHNUDVMMJ-UHFFFAOYSA-N
     RDKit          3D

 33 37  0  0  0  0  0  0  0  0999 V2000
   10.9080  -25.0570   25.2600 C   0  0  0  0  0  0  0  0  0  0  0  0
    9.6780  -25.7190   24.8980 N   0  0  0  0  0  0  0  0  0  0  0  0
    8.7310  -25.2750   24.0170 C   0  0  0  0  0  0  0  0  0  0  0  0
    7.7370  -26.2340   23.9970 C   0  0  0  0  0  0  0  0  0  0  0  0
    6.5160  -26.2110   23.2140 C   0  0  0  0  0  0  0  0  0  0  0  0
    5.6730  -27.2970   23.1080 C   0  0  0  0  0  0  0  0  0  0  0  0
    4.5280  -27.2100   22.3420 C   0  0  0  0  0  0  0  0  0  0  0  0
    3.7690  -28.3180   22.2970 N   0  0  0  0  0  0  0  0  0  0  0  0
    2.6380  -28.3010   21.5670 C   0  0  0  0  0  0  0  0  0  0  0  0
    2.2130  -27.2020   20.8590 C   0  0  0  0  0  0  0  0  0  0  0  0
    3.0020  -26.0570   20.9100 C   0  0  0  0  0  0  0  0  0  0  0  0
    4.2100  -26.0150   21.6640 C   0  0  0  0  0  0  0  0  0  0  0  0
    5.1330  -24.9430   21.8260 C   0  0  0  0  0  0  0  0  0  0  0  0
    4.9600  -23.6600   21.1990 N   0  0  0  0  0  0  0  0  0  0  0  0
    5.1480  -23.4000   19.8500 C   0  0  0  0  0  0  0  0  0  0  0  0
    4.8790  -22.0710   19.6350 C   0  0  0  0  0  0  0  0  0  0  0  0
    4.5250  -21.5870   20.9020 C   0  0  0  0  0  0  0  0  0  0  0  0
    4.1390  -20.0960   21.2170 C   0  0  0  0  0  0  0  0  0  0  0  0
    4.6220  -19.6360   22.5960 C   0  0  0  0  0  0  0  0  0  0  0  0
    6.0650  -19.3730   22.5910 C   0  0  0  0  0  0  0  0  0  0  0  0
    7.2060  -19.1580   22.5580 N   0  0  0  0  0  0  0  0  0  0  0  0
    4.3500  -19.1080   20.0260 C   0  0  0  0  0  0  0  0  0  0  0  0
    3.0380  -18.4980   20.3690 N   0  0  0  0  0  0  0  0  0  0  0  0
    2.2590  -18.2050   19.1420 C   0  0  0  0  0  0  0  0  0  0  0  0
    1.2970  -17.0090   19.2390 C   0  0  0  0  0  0  0  0  0  0  0  0
    0.4310  -17.1380   20.2670 F   0  0  0  0  0  0  0  0  0  0  0  0
    1.9920  -15.8640   19.4340 F   0  0  0  0  0  0  0  0  0  0  0  0
    0.5800  -16.8540   18.1030 F   0  0  0  0  0  0  0  0  0  0  0  0
    2.6270  -19.8000   20.9610 C   0  0  0  0  0  0  0  0  0  0  0  0
    4.5850  -22.5250   21.8490 N   0  0  0  0  0  0  0  0  0  0  0  0
    6.2610  -25.0480   22.5870 N   0  0  0  0  0  0  0  0  0  0  0  0
    8.1960  -27.2140   24.9110 C   0  0  0  0  0  0  0  0  0  0  0  0
    9.3730  -26.9000   25.4610 N   0  0  0  0  0  0  0  0  0  0  0  0
  1  2  1  0
  2  3  1  0
  3  4  2  0
  4  5  1  0
  5  6  2  0
  6  7  1  0
  7  8  2  0
  8  9  1  0
  9 10  2  0
 10 11  1  0
 11 12  2  0
 12 13  1  0
 13 14  1  0
 14 15  1  0
 15 16  2  0
 16 17  1  0
 17 18  1  0
 18 19  1  0
 19 20  1  0
 20 21  3  0
 18 22  1  0
 22 23  1  0
 23 24  1  0
 24 25  1  0
 25 26  1  0
 25 27  1  0
 25 28  1  0
 23 29  1  0
 17 30  2  0
 13 31  2  0
  4 32  1  0
 32 33  2  0
 33  2  1  0
 31  5  1  0
 12  7  1  0
 30 14  1  0
 29 18  1  0
M  END
$$$$
