PVXQZMOKDYXWBJ-KKFHFHRHSA-N
     RDKit          3D

 30 34  0  0  0  0  0  0  0  0999 V2000
   -1.0790   23.5880  -27.6900 O   0  0  0  0  0  0  0  0  0  0  0  0
   -1.9640   22.8770  -27.2130 C   0  0  0  0  0  0  0  0  0  0  0  0
   -2.2430   22.8560  -25.8740 N   0  0  0  0  0  0  0  0  0  0  0  0
   -1.5180   23.5900  -24.8270 C   0  0  2  0  0  0  0  0  0  0  0  0
   -1.8810   25.0900  -24.7710 C   0  0  0  0  0  0  0  0  0  0  0  0
   -2.2660   25.5270  -23.4740 O   0  0  0  0  0  0  0  0  0  0  0  0
    0.0050   23.3670  -24.9140 C   0  0  0  0  0  0  0  0  0  0  0  0
    0.5150   22.4830  -23.7960 C   0  0  0  0  0  0  0  0  0  0  0  0
    1.0380   21.2130  -24.0780 C   0  0  0  0  0  0  0  0  0  0  0  0
    1.5460   20.4140  -23.0530 C   0  0  0  0  0  0  0  0  0  0  0  0
    1.5360   20.8750  -21.7380 C   0  0  0  0  0  0  0  0  0  0  0  0
    1.0120   22.1330  -21.4450 C   0  0  0  0  0  0  0  0  0  0  0  0
    0.5010   22.9330  -22.4690 C   0  0  0  0  0  0  0  0  0  0  0  0
   -2.8320   21.9810  -28.1080 C   0  0  1  0  0  0  0  0  0  0  0  0
   -4.3250   22.2790  -27.9670 C   0  0  0  0  0  0  0  0  0  0  0  0
   -4.8750   23.2260  -29.0320 C   0  0  0  0  0  0  0  0  0  0  0  0
   -3.8070   24.0270  -29.6340 N   0  0  0  0  0  0  0  0  0  0  0  0
   -4.2420   25.1800  -30.3100 C   0  0  0  0  0  0  0  0  0  0  0  0
   -3.9320   26.4020  -29.7960 N   0  0  0  0  0  0  0  0  0  0  0  0
   -4.3440   27.5150  -30.4310 C   0  0  0  0  0  0  0  0  0  0  0  0
   -5.0520   27.6050  -31.5660 N   0  0  0  0  0  0  0  0  0  0  0  0
   -5.3210   26.3900  -32.0640 C   0  0  0  0  0  0  0  0  0  0  0  0
   -6.0000   26.1730  -33.2320 N   0  0  0  0  0  0  0  0  0  0  0  0
   -6.0800   24.8260  -33.4770 C   0  0  0  0  0  0  0  0  0  0  0  0
   -5.4450   24.1750  -32.4400 C   0  0  0  0  0  0  0  0  0  0  0  0
   -4.9660   25.1610  -31.5240 C   0  0  0  0  0  0  0  0  0  0  0  0
   -2.7370   23.2920  -30.3120 C   0  0  0  0  0  0  0  0  0  0  0  0
   -2.4170   22.0030  -29.5720 C   0  0  0  0  0  0  0  0  0  0  0  0
   -1.1640   21.2470  -29.9730 C   0  0  0  0  0  0  0  0  0  0  0  0
   -2.5070   20.6980  -30.3480 C   0  0  0  0  0  0  0  0  0  0  0  0
  1  2  2  0
  2  3  1  0
  3  4  1  0
  4  5  1  6
  5  6  1  0
  4  7  1  0
  7  8  1  0
  8  9  2  0
  9 10  1  0
 10 11  2  0
 11 12  1  0
 12 13  2  0
 14  2  1  1
 14 15  1  0
 15 16  1  0
 16 17  1  0
 17 18  1  0
 18 19  2  0
 19 20  1  0
 20 21  2  0
 21 22  1  0
 22 23  1  0
 23 24  1  0
 24 25  2  0
 25 26  1  0
 17 27  1  0
 27 28  1  0
 28 29  1  0
 29 30  1  0
 13  8  1  0
 28 14  1  0
 26 18  1  0
 30 28  1  0
 26 22  2  0
M  END
$$$$
