PVXQZMOKDYXWBJ-KKFHFHRHSA-N
     RDKit          3D

 30 34  0  0  0  0  0  0  0  0999 V2000
   -6.2960   27.0250  -31.0650 O   0  0  0  0  0  0  0  0  0  0  0  0
   -5.0820   26.8950  -31.2200 C   0  0  0  0  0  0  0  0  0  0  0  0
   -4.1740   27.7010  -30.5890 N   0  0  0  0  0  0  0  0  0  0  0  0
   -4.4880   28.8430  -29.7200 C   0  0  2  0  0  0  0  0  0  0  0  0
   -4.7400   30.1520  -30.5000 C   0  0  0  0  0  0  0  0  0  0  0  0
   -6.0430   30.2280  -31.0650 O   0  0  0  0  0  0  0  0  0  0  0  0
   -3.4380   29.0280  -28.6060 C   0  0  0  0  0  0  0  0  0  0  0  0
   -3.5250   30.3960  -27.9640 C   0  0  0  0  0  0  0  0  0  0  0  0
   -4.6240   30.7350  -27.1620 C   0  0  0  0  0  0  0  0  0  0  0  0
   -4.6850   31.9810  -26.5360 C   0  0  0  0  0  0  0  0  0  0  0  0
   -3.6510   32.8990  -26.7070 C   0  0  0  0  0  0  0  0  0  0  0  0
   -2.5570   32.5750  -27.5070 C   0  0  0  0  0  0  0  0  0  0  0  0
   -2.4950   31.3300  -28.1360 C   0  0  0  0  0  0  0  0  0  0  0  0
   -4.5100   25.7940  -32.1230 C   0  0  1  0  0  0  0  0  0  0  0  0
   -2.9980   25.6320  -31.9660 C   0  0  0  0  0  0  0  0  0  0  0  0
   -2.5870   24.5230  -30.9990 C   0  0  0  0  0  0  0  0  0  0  0  0
   -3.6710   24.2000  -30.0690 N   0  0  0  0  0  0  0  0  0  0  0  0
   -3.2720   23.5060  -28.9140 C   0  0  0  0  0  0  0  0  0  0  0  0
   -3.1550   22.1500  -28.9650 N   0  0  0  0  0  0  0  0  0  0  0  0
   -2.7760   21.4730  -27.8660 C   0  0  0  0  0  0  0  0  0  0  0  0
   -2.4720   21.9650  -26.6560 N   0  0  0  0  0  0  0  0  0  0  0  0
   -2.5700   23.3010  -26.6400 C   0  0  0  0  0  0  0  0  0  0  0  0
   -2.2870   24.0780  -25.5480 N   0  0  0  0  0  0  0  0  0  0  0  0
   -2.4540   25.4020  -25.8680 C   0  0  0  0  0  0  0  0  0  0  0  0
   -2.8580   25.4650  -27.1860 C   0  0  0  0  0  0  0  0  0  0  0  0
   -2.9480   24.1310  -27.6880 C   0  0  0  0  0  0  0  0  0  0  0  0
   -4.9250   23.7270  -30.6600 C   0  0  0  0  0  0  0  0  0  0  0  0
   -5.2120   24.4530  -31.9640 C   0  0  0  0  0  0  0  0  0  0  0  0
   -6.5900   24.2890  -32.5800 C   0  0  0  0  0  0  0  0  0  0  0  0
   -5.4120   23.6120  -33.2150 C   0  0  0  0  0  0  0  0  0  0  0  0
  1  2  2  0
  2  3  1  0
  3  4  1  0
  4  5  1  6
  5  6  1  0
  4  7  1  0
  7  8  1  0
  8  9  2  0
  9 10  1  0
 10 11  2  0
 11 12  1  0
 12 13  2  0
 14  2  1  1
 14 15  1  0
 15 16  1  0
 16 17  1  0
 17 18  1  0
 18 19  2  0
 19 20  1  0
 20 21  2  0
 21 22  1  0
 22 23  1  0
 23 24  1  0
 24 25  2  0
 25 26  1  0
 17 27  1  0
 27 28  1  0
 28 29  1  0
 29 30  1  0
 13  8  1  0
 28 14  1  0
 26 18  1  0
 30 28  1  0
 26 22  2  0
M  END
$$$$
