XMOANMMSPJBNRJ-UHFFFAOYSA-N
     RDKit          3D

 35 38  0  0  0  0  0  0  0  0999 V2000
   14.3120   15.8610   -2.2820 C   0  0  0  0  0  0  0  0  0  0  0  0
   15.2440   15.5690   -3.4230 C   0  0  0  0  0  0  0  0  0  0  0  0
   14.7240   15.2900   -4.6970 C   0  0  0  0  0  0  0  0  0  0  0  0
   15.5720   15.0070   -5.7780 C   0  0  0  0  0  0  0  0  0  0  0  0
   14.9960   14.6620   -7.1250 C   0  0  0  0  0  0  0  0  0  0  0  0
   13.9080   13.7340   -6.9950 N   0  0  0  0  0  0  0  0  0  0  0  0
   12.6000   14.0970   -7.2060 C   0  0  0  0  0  0  0  0  0  0  0  0
   12.2520   15.2290   -7.5290 O   0  0  0  0  0  0  0  0  0  0  0  0
   11.6540   12.9920   -7.0000 C   0  0  0  0  0  0  0  0  0  0  0  0
   10.6330   12.9110   -6.0210 C   0  0  0  0  0  0  0  0  0  0  0  0
   10.0270   11.6830   -6.1960 C   0  0  0  0  0  0  0  0  0  0  0  0
    8.9330   11.0680   -5.4540 C   0  0  0  0  0  0  0  0  0  0  0  0
    7.8370   10.5150   -6.1230 C   0  0  0  0  0  0  0  0  0  0  0  0
    6.7930    9.9230   -5.4050 C   0  0  0  0  0  0  0  0  0  0  0  0
    6.8260    9.8720   -4.0060 C   0  0  0  0  0  0  0  0  0  0  0  0
    5.7340    9.2500   -3.2740 C   0  0  0  0  0  0  0  0  0  0  0  0
    4.4520    8.8240   -3.7250 C   0  0  0  0  0  0  0  0  0  0  0  0
    3.7990    8.3140   -2.6260 C   0  0  0  0  0  0  0  0  0  0  0  0
    4.5860    8.4050   -1.5250 O   0  0  0  0  0  0  0  0  0  0  0  0
    5.7530    8.9740   -1.9210 C   0  0  0  0  0  0  0  0  0  0  0  0
    7.9320   10.4160   -3.3400 C   0  0  0  0  0  0  0  0  0  0  0  0
    8.9780   11.0060   -4.0580 C   0  0  0  0  0  0  0  0  0  0  0  0
   10.6690   11.1250   -7.2760 N   0  0  0  0  0  0  0  0  0  0  0  0
   10.3690    9.8680   -7.9260 C   0  0  0  0  0  0  0  0  0  0  0  0
   11.6730   11.8820   -7.7650 N   0  0  0  0  0  0  0  0  0  0  0  0
   16.9540   14.9850   -5.5660 C   0  0  0  0  0  0  0  0  0  0  0  0
   17.4840   15.2760   -4.3070 C   0  0  0  0  0  0  0  0  0  0  0  0
   16.6350   15.5990   -3.2490 C   0  0  0  0  0  0  0  0  0  0  0  0
   17.1170   15.8650   -1.9980 O   0  0  0  0  0  0  0  0  0  0  0  0
   17.7310   14.7820   -1.2730 C   0  0  0  0  0  0  0  0  0  0  0  0
   19.2670   14.7590   -1.3840 C   0  0  0  0  0  0  0  0  0  0  0  0
   17.3610   15.0610    0.1950 C   0  0  0  0  0  0  0  0  0  0  0  0
   17.1200   13.4110   -1.6130 C   0  0  0  0  0  0  0  0  0  0  0  0
   16.0340   12.9740   -1.2630 O   0  0  0  0  0  0  0  0  0  0  0  0
   17.9350   12.6210   -2.3470 O   0  0  0  0  0  0  0  0  0  0  0  0
  1  2  1  0
  2  3  2  0
  3  4  1  0
  4  5  1  0
  5  6  1  0
  6  7  1  0
  7  8  2  0
  7  9  1  0
  9 10  1  0
 10 11  2  0
 11 12  1  0
 12 13  2  0
 13 14  1  0
 14 15  2  0
 15 16  1  0
 16 17  1  0
 17 18  2  0
 18 19  1  0
 19 20  1  0
 15 21  1  0
 21 22  2  0
 11 23  1  0
 23 24  1  0
 23 25  1  0
  4 26  2  0
 26 27  1  0
 27 28  2  0
 28 29  1  0
 29 30  1  0
 30 31  1  0
 30 32  1  0
 30 33  1  0
 33 34  2  0
 33 35  1  0
 28  2  1  0
 25  9  2  0
 22 12  1  0
 20 16  2  0
M  END
$$$$
