QKANMMQGZZPRTO-UHFFFAOYSA-N
     RDKit          3D

 33 35  0  0  0  0  0  0  0  0999 V2000
    1.9510    7.6600    0.2550 C   0  0  0  0  0  0  0  0  0  0  0  0
    2.6090    8.5540   -0.6440 O   0  0  0  0  0  0  0  0  0  0  0  0
    3.8770    8.1830   -0.9730 C   0  0  0  0  0  0  0  0  0  0  0  0
    4.8790    8.7440   -0.5460 O   0  0  0  0  0  0  0  0  0  0  0  0
    3.9020    7.1120   -1.8440 N   0  0  0  0  0  0  0  0  0  0  0  0
    4.5820    5.8570   -1.5080 C   0  0  0  0  0  0  0  0  0  0  0  0
    3.6720    4.6460   -1.3290 C   0  0  0  0  0  0  0  0  0  0  0  0
    2.4690    4.6410   -1.5510 O   0  0  0  0  0  0  0  0  0  0  0  0
    4.2680    3.5410   -0.8440 O   0  0  0  0  0  0  0  0  0  0  0  0
    3.3200    7.2510   -3.1710 C   0  0  0  0  0  0  0  0  0  0  0  0
    4.3570    7.4470   -4.2500 C   0  0  0  0  0  0  0  0  0  0  0  0
    4.7950    6.3660   -5.0280 C   0  0  0  0  0  0  0  0  0  0  0  0
    5.7670    6.5570   -6.0090 C   0  0  0  0  0  0  0  0  0  0  0  0
    6.3100    7.8250   -6.2140 C   0  0  0  0  0  0  0  0  0  0  0  0
    5.8930    8.9120   -5.4420 C   0  0  0  0  0  0  0  0  0  0  0  0
    6.5160   10.0940   -5.7340 O   0  0  0  0  0  0  0  0  0  0  0  0
    7.8520   10.2590   -5.2470 C   0  0  0  0  0  0  0  0  0  0  0  0
    8.7950   10.5600   -6.3600 C   0  0  0  0  0  0  0  0  0  0  0  0
    9.7360   11.5600   -6.4570 C   0  0  0  0  0  0  0  0  0  0  0  0
   10.3670   11.4390   -7.6560 O   0  0  0  0  0  0  0  0  0  0  0  0
    9.7710   10.3520   -8.2450 C   0  0  0  0  0  0  0  0  0  0  0  0
   10.2440    9.9790   -9.5750 C   0  0  0  0  0  0  0  0  0  0  0  0
   10.1930    8.6580  -10.0400 C   0  0  0  0  0  0  0  0  0  0  0  0
   10.6600    8.3280  -11.3180 C   0  0  0  0  0  0  0  0  0  0  0  0
   11.1980    9.3130  -12.1580 C   0  0  0  0  0  0  0  0  0  0  0  0
   11.6840    8.9650  -13.5440 C   0  0  0  0  0  0  0  0  0  0  0  0
   11.1960    7.7700  -13.9780 F   0  0  0  0  0  0  0  0  0  0  0  0
   11.3210    9.8830  -14.4830 F   0  0  0  0  0  0  0  0  0  0  0  0
   13.0410    8.8670  -13.6270 F   0  0  0  0  0  0  0  0  0  0  0  0
   11.2410   10.6380  -11.7000 C   0  0  0  0  0  0  0  0  0  0  0  0
   10.7730   10.9650  -10.4240 C   0  0  0  0  0  0  0  0  0  0  0  0
    8.8310    9.7910   -7.5070 N   0  0  0  0  0  0  0  0  0  0  0  0
    4.9090    8.7220   -4.4710 C   0  0  0  0  0  0  0  0  0  0  0  0
  1  2  1  0
  2  3  1  0
  3  4  2  0
  3  5  1  0
  5  6  1  0
  6  7  1  0
  7  8  2  0
  7  9  1  0
  5 10  1  0
 10 11  1  0
 11 12  2  0
 12 13  1  0
 13 14  2  0
 14 15  1  0
 15 16  1  0
 16 17  1  0
 17 18  1  0
 18 19  2  0
 19 20  1  0
 20 21  1  0
 21 22  1  0
 22 23  2  0
 23 24  1  0
 24 25  2  0
 25 26  1  0
 26 27  1  0
 26 28  1  0
 26 29  1  0
 25 30  1  0
 30 31  2  0
 21 32  2  0
 15 33  2  0
 33 11  1  0
 32 18  1  0
 31 22  1  0
M  END
$$$$
