HBCBZGQRHKFODN-UHFFFAOYSA-N
     RDKit          3D

 32 34  0  0  0  0  0  0  0  0999 V2000
   44.4730  -39.1520  108.3150 C   0  0  0  0  0  0  0  0  0  0  0  0
   43.0390  -39.2380  107.9290 C   0  0  0  0  0  0  0  0  0  0  0  0
   42.0860  -38.7820  108.8250 N   0  0  0  0  0  0  0  0  0  0  0  0
   40.8680  -38.9070  108.3310 C   0  0  0  0  0  0  0  0  0  0  0  0
   39.6440  -38.5050  109.0580 C   0  0  0  0  0  0  0  0  0  0  0  0
   39.5180  -38.5480  110.4550 C   0  0  0  0  0  0  0  0  0  0  0  0
   38.3330  -38.1560  111.0860 C   0  0  0  0  0  0  0  0  0  0  0  0
   37.2510  -37.7100  110.3300 C   0  0  0  0  0  0  0  0  0  0  0  0
   37.3420  -37.6440  108.9350 C   0  0  0  0  0  0  0  0  0  0  0  0
   36.1690  -37.1850  108.1060 C   0  0  0  0  0  0  0  0  0  0  0  0
   35.3480  -38.2140  107.7570 F   0  0  0  0  0  0  0  0  0  0  0  0
   36.5350  -36.5830  106.9390 F   0  0  0  0  0  0  0  0  0  0  0  0
   35.3790  -36.2830  108.7550 F   0  0  0  0  0  0  0  0  0  0  0  0
   38.5380  -38.0510  108.3140 C   0  0  0  0  0  0  0  0  0  0  0  0
   40.8210  -39.5910  106.7500 S   0  0  0  0  0  0  0  0  0  0  0  0
   42.5300  -39.7270  106.7380 C   0  0  0  0  0  0  0  0  0  0  0  0
   43.2450  -40.3140  105.5630 C   0  0  0  0  0  0  0  0  0  0  0  0
   42.3750  -40.3140  104.3900 N   0  0  0  0  0  0  0  0  0  0  0  0
   42.7780  -39.2830  103.4380 C   0  0  0  0  0  0  0  0  0  0  0  0
   41.5830  -38.7680  102.6710 C   0  0  0  0  0  0  0  0  0  0  0  0
   40.2910  -38.8930  103.2070 C   0  0  0  0  0  0  0  0  0  0  0  0
   39.1770  -38.4260  102.5030 C   0  0  0  0  0  0  0  0  0  0  0  0
   39.3510  -37.8160  101.2650 C   0  0  0  0  0  0  0  0  0  0  0  0
   38.2940  -37.3710  100.5230 O   0  0  0  0  0  0  0  0  0  0  0  0
   37.6750  -36.1460  100.9640 C   0  0  0  0  0  0  0  0  0  0  0  0
   38.6820  -34.9930  101.1400 C   0  0  0  0  0  0  0  0  0  0  0  0
   36.7170  -35.7730   99.8190 C   0  0  0  0  0  0  0  0  0  0  0  0
   36.7860  -36.3190  102.2120 C   0  0  0  0  0  0  0  0  0  0  0  0
   35.9130  -37.1550  102.3910 O   0  0  0  0  0  0  0  0  0  0  0  0
   36.9920  -35.3780  103.1620 O   0  0  0  0  0  0  0  0  0  0  0  0
   40.6230  -37.7320  100.6970 C   0  0  0  0  0  0  0  0  0  0  0  0
   41.7360  -38.1960  101.4010 C   0  0  0  0  0  0  0  0  0  0  0  0
  1  2  1  0
  2  3  1  0
  3  4  2  0
  4  5  1  0
  5  6  2  0
  6  7  1  0
  7  8  2  0
  8  9  1  0
  9 10  1  0
 10 11  1  0
 10 12  1  0
 10 13  1  0
  9 14  2  0
  4 15  1  0
 15 16  1  0
 16 17  1  0
 17 18  1  0
 18 19  1  0
 19 20  1  0
 20 21  2  0
 21 22  1  0
 22 23  2  0
 23 24  1  0
 24 25  1  0
 25 26  1  0
 25 27  1  0
 25 28  1  0
 28 29  2  0
 28 30  1  0
 23 31  1  0
 31 32  2  0
 16  2  2  0
 32 20  1  0
 14  5  1  0
M  END
$$$$
