MXVRETICWXXRDS-VWLOTQADSA-N
     RDKit          3D

 35 39  0  0  0  0  0  0  0  0999 V2000
   -5.9090  -10.5940  -25.7520 C   0  0  0  0  0  0  0  0  0  0  0  0
   -6.9280   -9.7000  -25.1510 C   0  0  0  0  0  0  0  0  0  0  0  0
   -7.7290   -8.7290  -25.7210 C   0  0  0  0  0  0  0  0  0  0  0  0
   -7.8140   -8.2700  -27.1370 C   0  0  0  0  0  0  0  0  0  0  0  0
   -8.7750   -9.1190  -27.9660 C   0  0  0  0  0  0  0  0  0  0  0  0
  -10.0690   -9.0960  -27.3530 O   0  0  0  0  0  0  0  0  0  0  0  0
  -10.7630   -7.9170  -27.4080 C   0  0  0  0  0  0  0  0  0  0  0  0
  -11.5460   -7.6490  -26.2720 C   0  0  0  0  0  0  0  0  0  0  0  0
  -12.3140   -6.4850  -26.1770 C   0  0  0  0  0  0  0  0  0  0  0  0
  -12.3010   -5.5970  -27.2390 C   0  0  0  0  0  0  0  0  0  0  0  0
  -11.5140   -5.8570  -28.3670 C   0  0  0  0  0  0  0  0  0  0  0  0
  -10.7380   -7.0040  -28.4650 C   0  0  0  0  0  0  0  0  0  0  0  0
  -11.6050   -4.7380  -29.3550 C   0  0  0  0  0  0  0  0  0  0  0  0
  -12.9030   -4.0550  -28.9060 C   0  0  0  0  0  0  0  0  0  0  0  0
  -13.0070   -4.2710  -27.3760 C   0  0  1  0  0  0  0  0  0  0  0  0
  -14.4490   -4.2700  -26.8740 C   0  0  0  0  0  0  0  0  0  0  0  0
  -14.5850   -3.5560  -25.5590 C   0  0  0  0  0  0  0  0  0  0  0  0
  -14.7980   -2.3700  -25.3740 O   0  0  0  0  0  0  0  0  0  0  0  0
  -14.4160   -4.3910  -24.5140 O   0  0  0  0  0  0  0  0  0  0  0  0
   -8.5440   -8.1610  -24.7740 N   0  0  0  0  0  0  0  0  0  0  0  0
   -8.2480   -8.7390  -23.6230 C   0  0  0  0  0  0  0  0  0  0  0  0
   -8.8840   -8.4120  -22.3460 C   0  0  0  0  0  0  0  0  0  0  0  0
   -8.2910   -7.4650  -21.5060 C   0  0  0  0  0  0  0  0  0  0  0  0
   -8.8780   -7.1310  -20.2810 C   0  0  0  0  0  0  0  0  0  0  0  0
  -10.0650   -7.7470  -19.8550 C   0  0  0  0  0  0  0  0  0  0  0  0
  -10.6820   -7.3940  -18.5660 C   0  0  0  0  0  0  0  0  0  0  0  0
  -10.4330   -6.1510  -17.9580 C   0  0  0  0  0  0  0  0  0  0  0  0
  -11.0230   -5.8150  -16.7360 C   0  0  0  0  0  0  0  0  0  0  0  0
  -11.8710   -6.7180  -16.1000 C   0  0  0  0  0  0  0  0  0  0  0  0
  -12.1300   -7.9550  -16.6850 C   0  0  0  0  0  0  0  0  0  0  0  0
  -11.5410   -8.2890  -17.9080 C   0  0  0  0  0  0  0  0  0  0  0  0
  -10.6400   -8.7150  -20.6950 C   0  0  0  0  0  0  0  0  0  0  0  0
  -10.0560   -9.0480  -21.9230 C   0  0  0  0  0  0  0  0  0  0  0  0
   -7.2950   -9.7200  -23.8230 N   0  0  0  0  0  0  0  0  0  0  0  0
   -6.8110  -10.6470  -22.8260 C   0  0  0  0  0  0  0  0  0  0  0  0
  1  2  1  0
  2  3  2  0
  3  4  1  0
  4  5  1  0
  5  6  1  0
  6  7  1  0
  7  8  2  0
  8  9  1  0
  9 10  2  0
 10 11  1  0
 11 12  2  0
 11 13  1  0
 13 14  1  0
 14 15  1  0
 15 16  1  6
 16 17  1  0
 17 18  2  0
 17 19  1  0
  3 20  1  0
 20 21  2  0
 21 22  1  0
 22 23  2  0
 23 24  1  0
 24 25  2  0
 25 26  1  0
 26 27  2  0
 27 28  1  0
 28 29  2  0
 29 30  1  0
 30 31  2  0
 25 32  1  0
 32 33  2  0
 21 34  1  0
 34 35  1  0
 34  2  1  0
 12  7  1  0
 33 22  1  0
 15 10  1  0
 31 26  1  0
M  END
$$$$
