PQJGWYQPOHCEDO-ZDUSSCGKSA-N
     RDKit          3D

 30 33  0  0  0  0  0  0  0  0999 V2000
  135.0170  -16.5350  169.0440 N   0  0  0  0  0  0  0  0  0  0  0  0
  134.1980  -16.0480  168.1670 C   0  0  0  0  0  0  0  0  0  0  0  0
  133.8100  -14.7600  168.3180 N   0  0  0  0  0  0  0  0  0  0  0  0
  133.6860  -16.8560  167.0320 C   0  0  0  0  0  0  0  0  0  0  0  0
  133.4490  -18.2220  167.1970 C   0  0  0  0  0  0  0  0  0  0  0  0
  132.9610  -18.9680  166.1240 C   0  0  0  0  0  0  0  0  0  0  0  0
  132.7110  -18.3530  164.8970 C   0  0  0  0  0  0  0  0  0  0  0  0
  132.2250  -19.1700  163.9160 O   0  0  0  0  0  0  0  0  0  0  0  0
  132.9670  -16.9890  164.7030 C   0  0  0  0  0  0  0  0  0  0  0  0
  132.7640  -16.3020  163.3780 C   0  0  0  0  0  0  0  0  0  0  0  0
  131.4180  -15.7800  163.2440 N   0  0  0  0  0  0  0  0  0  0  0  0
  130.2720  -16.3600  163.8960 C   0  0  0  0  0  0  0  0  0  0  0  0
  129.0940  -15.7870  163.1270 C   0  0  0  0  0  0  0  0  0  0  0  0
  129.5960  -14.4250  162.6520 C   0  0  2  0  0  0  0  0  0  0  0  0
  128.9920  -14.0560  161.3650 N   0  0  0  0  0  0  0  0  0  0  0  0
  127.3210  -14.1880  161.2480 S   0  0  0  0  0  0  0  0  0  0  0  0
  126.9070  -13.3110  160.1800 O   0  0  0  0  0  0  0  0  0  0  0  0
  126.9940  -15.5960  161.2900 O   0  0  0  0  0  0  0  0  0  0  0  0
  126.6260  -13.4760  162.7160 C   0  0  0  0  0  0  0  0  0  0  0  0
  126.8380  -12.2770  163.3640 C   0  0  0  0  0  0  0  0  0  0  0  0
  126.0340  -12.1380  164.5300 C   0  0  0  0  0  0  0  0  0  0  0  0
  126.0510  -11.0640  165.3640 N   0  0  0  0  0  0  0  0  0  0  0  0
  125.2050  -11.1270  166.4110 C   0  0  0  0  0  0  0  0  0  0  0  0
  124.3510  -12.1800  166.6870 C   0  0  0  0  0  0  0  0  0  0  0  0
  124.3400  -13.2780  165.8330 C   0  0  0  0  0  0  0  0  0  0  0  0
  125.2080  -13.2420  164.7320 C   0  0  0  0  0  0  0  0  0  0  0  0
  125.4350  -14.4180  163.5020 S   0  0  0  0  0  0  0  0  0  0  0  0
  131.0830  -14.6770  162.4850 C   0  0  0  0  0  0  0  0  0  0  0  0
  131.8480  -14.0250  161.7880 O   0  0  0  0  0  0  0  0  0  0  0  0
  133.4450  -16.2410  165.7960 C   0  0  0  0  0  0  0  0  0  0  0  0
  1  2  2  0
  2  3  1  0
  2  4  1  0
  4  5  2  0
  5  6  1  0
  6  7  2  0
  7  8  1  0
  7  9  1  0
  9 10  1  0
 10 11  1  0
 11 12  1  0
 12 13  1  0
 13 14  1  0
 14 15  1  6
 15 16  1  0
 16 17  2  0
 16 18  2  0
 16 19  1  0
 19 20  2  0
 20 21  1  0
 21 22  2  0
 22 23  1  0
 23 24  2  0
 24 25  1  0
 25 26  2  0
 26 27  1  0
 14 28  1  0
 28 29  2  0
  9 30  2  0
 30  4  1  0
 28 11  1  0
 27 19  1  0
 26 21  1  0
M  END
$$$$
