PQJGWYQPOHCEDO-ZDUSSCGKSA-N
     RDKit          3D

 30 33  0  0  0  0  0  0  0  0999 V2000
  137.5740  -14.6810  166.2380 N   0  0  0  0  0  0  0  0  0  0  0  0
  136.9090  -15.7840  166.1110 C   0  0  0  0  0  0  0  0  0  0  0  0
  137.5890  -16.8850  165.7140 N   0  0  0  0  0  0  0  0  0  0  0  0
  135.4510  -15.8620  166.3810 C   0  0  0  0  0  0  0  0  0  0  0  0
  134.9260  -15.3090  167.5500 C   0  0  0  0  0  0  0  0  0  0  0  0
  133.5540  -15.3830  167.7880 C   0  0  0  0  0  0  0  0  0  0  0  0
  132.7130  -16.0040  166.8640 C   0  0  0  0  0  0  0  0  0  0  0  0
  131.3860  -16.0130  167.1870 O   0  0  0  0  0  0  0  0  0  0  0  0
  133.2240  -16.5890  165.6970 C   0  0  0  0  0  0  0  0  0  0  0  0
  132.3560  -17.3170  164.7050 C   0  0  0  0  0  0  0  0  0  0  0  0
  131.9670  -16.4620  163.6010 N   0  0  0  0  0  0  0  0  0  0  0  0
  132.9060  -15.8870  162.6720 C   0  0  0  0  0  0  0  0  0  0  0  0
  132.1220  -14.7610  162.0210 C   0  0  0  0  0  0  0  0  0  0  0  0
  130.6770  -15.2520  162.0590 C   0  0  2  0  0  0  0  0  0  0  0  0
  129.7380  -14.1300  162.1920 N   0  0  0  0  0  0  0  0  0  0  0  0
  128.1450  -14.4200  161.7440 S   0  0  0  0  0  0  0  0  0  0  0  0
  127.8750  -13.5840  160.5990 O   0  0  0  0  0  0  0  0  0  0  0  0
  127.9470  -15.8520  161.7450 O   0  0  0  0  0  0  0  0  0  0  0  0
  127.1040  -13.7780  163.0300 C   0  0  0  0  0  0  0  0  0  0  0  0
  127.0490  -12.5540  163.6630 C   0  0  0  0  0  0  0  0  0  0  0  0
  126.0270  -12.4980  164.6510 C   0  0  0  0  0  0  0  0  0  0  0  0
  125.7600  -11.4200  165.4350 N   0  0  0  0  0  0  0  0  0  0  0  0
  124.7430  -11.5700  166.3070 C   0  0  0  0  0  0  0  0  0  0  0  0
  123.9800  -12.7150  166.4540 C   0  0  0  0  0  0  0  0  0  0  0  0
  124.2590  -13.8170  165.6520 C   0  0  0  0  0  0  0  0  0  0  0  0
  125.3100  -13.6910  164.7340 C   0  0  0  0  0  0  0  0  0  0  0  0
  125.9020  -14.8460  163.6100 S   0  0  0  0  0  0  0  0  0  0  0  0
  130.6650  -16.1030  163.3150 C   0  0  0  0  0  0  0  0  0  0  0  0
  129.6760  -16.4050  163.9690 O   0  0  0  0  0  0  0  0  0  0  0  0
  134.6080  -16.4960  165.4590 C   0  0  0  0  0  0  0  0  0  0  0  0
  1  2  2  0
  2  3  1  0
  2  4  1  0
  4  5  2  0
  5  6  1  0
  6  7  2  0
  7  8  1  0
  7  9  1  0
  9 10  1  0
 10 11  1  0
 11 12  1  0
 12 13  1  0
 13 14  1  0
 14 15  1  1
 15 16  1  0
 16 17  2  0
 16 18  2  0
 16 19  1  0
 19 20  2  0
 20 21  1  0
 21 22  2  0
 22 23  1  0
 23 24  2  0
 24 25  1  0
 25 26  2  0
 26 27  1  0
 14 28  1  0
 28 29  2  0
  9 30  2  0
 30  4  1  0
 28 11  1  0
 27 19  1  0
 26 21  1  0
M  END
$$$$
