KWGGIRZLUSNBCK-UHFFFAOYSA-N
     RDKit          3D

 35 38  0  0  0  0  0  0  0  0999 V2000
   49.7840  -32.8660  107.4500 C   0  0  0  0  0  0  0  0  0  0  0  0
   49.0350  -34.0960  106.9790 C   0  0  0  0  0  0  0  0  0  0  0  0
   49.2510  -35.1380  107.9290 O   0  0  0  0  0  0  0  0  0  0  0  0
   48.0330  -35.7540  108.3670 C   0  0  1  0  0  0  0  0  0  0  0  0
   48.2400  -37.2770  108.3490 C   0  0  0  0  0  0  0  0  0  0  0  0
   46.9530  -38.0260  108.0700 C   0  0  0  0  0  0  0  0  0  0  0  0
   45.7890  -37.3310  107.7310 C   0  0  0  0  0  0  0  0  0  0  0  0
   44.5930  -38.0040  107.4570 C   0  0  0  0  0  0  0  0  0  0  0  0
   44.5860  -39.4060  107.5220 C   0  0  0  0  0  0  0  0  0  0  0  0
   45.7340  -40.1320  107.8570 C   0  0  0  0  0  0  0  0  0  0  0  0
   46.9260  -39.4280  108.1320 C   0  0  0  0  0  0  0  0  0  0  0  0
   45.3950  -41.5210  107.8380 C   0  0  0  0  0  0  0  0  0  0  0  0
   46.3060  -42.6570  108.1290 C   0  0  0  0  0  0  0  0  0  0  0  0
   44.0610  -41.6020  107.4990 C   0  0  0  0  0  0  0  0  0  0  0  0
   43.5840  -40.3300  107.2950 N   0  0  0  0  0  0  0  0  0  0  0  0
   42.2040  -40.0300  106.9300 C   0  0  0  0  0  0  0  0  0  0  0  0
   41.9900  -40.1200  105.4600 C   0  0  0  0  0  0  0  0  0  0  0  0
   42.9920  -40.5890  104.6320 N   0  0  0  0  0  0  0  0  0  0  0  0
   42.4710  -40.5360  103.4210 C   0  0  0  0  0  0  0  0  0  0  0  0
   43.0740  -40.8950  102.1390 C   0  0  0  0  0  0  0  0  0  0  0  0
   43.9330  -41.9950  102.0030 C   0  0  0  0  0  0  0  0  0  0  0  0
   44.4930  -42.3190  100.7630 C   0  0  0  0  0  0  0  0  0  0  0  0
   44.2000  -41.5540   99.6260 C   0  0  0  0  0  0  0  0  0  0  0  0
   44.8160  -41.8870   98.2890 C   0  0  0  0  0  0  0  0  0  0  0  0
   45.7880  -42.8390   98.3670 F   0  0  0  0  0  0  0  0  0  0  0  0
   45.3990  -40.8050   97.7030 F   0  0  0  0  0  0  0  0  0  0  0  0
   43.9090  -42.3580   97.3880 F   0  0  0  0  0  0  0  0  0  0  0  0
   43.3480  -40.4480   99.7590 C   0  0  0  0  0  0  0  0  0  0  0  0
   42.7900  -40.1260  101.0010 C   0  0  0  0  0  0  0  0  0  0  0  0
   41.1800  -40.0810  103.3920 O   0  0  0  0  0  0  0  0  0  0  0  0
   40.8790  -39.8190  104.6990 C   0  0  0  0  0  0  0  0  0  0  0  0
   39.5290  -39.2990  104.9800 C   0  0  0  0  0  0  0  0  0  0  0  0
   47.6420  -35.3310  109.7860 C   0  0  0  0  0  0  0  0  0  0  0  0
   46.7940  -35.8310  110.5080 O   0  0  0  0  0  0  0  0  0  0  0  0
   48.3870  -34.3010  110.2490 O   0  0  0  0  0  0  0  0  0  0  0  0
  1  2  1  0
  2  3  1  0
  3  4  1  0
  4  5  1  1
  5  6  1  0
  6  7  2  0
  7  8  1  0
  8  9  2  0
  9 10  1  0
 10 11  2  0
 10 12  1  0
 12 13  1  0
 12 14  2  0
 14 15  1  0
 15 16  1  0
 16 17  1  0
 17 18  1  0
 18 19  2  0
 19 20  1  0
 20 21  2  0
 21 22  1  0
 22 23  2  0
 23 24  1  0
 24 25  1  0
 24 26  1  0
 24 27  1  0
 23 28  1  0
 28 29  2  0
 19 30  1  0
 30 31  1  0
 31 32  1  0
  4 33  1  0
 33 34  2  0
 33 35  1  0
 11  6  1  0
 31 17  2  0
 15  9  1  0
 29 20  1  0
M  END
$$$$
