CLQIXXQBNKZNQN-VGSWGCGISA-N
     RDKit          3D

 35 40  0  0  0  0  0  0  0  0999 V2000
    3.1990  -18.1210   22.4160 N   0  0  0  0  0  0  0  0  0  0  0  0
    2.9970  -18.0790   21.2740 C   0  0  0  0  0  0  0  0  0  0  0  0
    2.7730  -17.9450   19.8140 C   0  0  1  0  0  0  0  0  0  0  0  0
    1.4070  -17.2700   19.5930 C   0  0  0  0  0  0  0  0  0  0  0  0
    1.4620  -15.7480   19.6980 C   0  0  0  0  0  0  0  0  0  0  0  0
    2.1030  -15.0240   18.5050 C   0  0  0  0  0  0  0  0  0  0  0  0
    2.5960  -15.9240   17.3780 C   0  0  0  0  0  0  0  0  0  0  0  0
    3.8530  -16.7120   17.7490 C   0  0  0  0  0  0  0  0  0  0  0  0
    3.9730  -17.1690   19.2180 C   0  0  2  0  0  0  0  0  0  0  0  0
    5.2130  -17.9300   19.4380 N   0  0  0  0  0  0  0  0  0  0  0  0
    5.2110  -19.2570   19.1750 N   0  0  0  0  0  0  0  0  0  0  0  0
    6.4300  -19.6940   19.5230 C   0  0  0  0  0  0  0  0  0  0  0  0
    6.9060  -20.9630   19.4670 N   0  0  0  0  0  0  0  0  0  0  0  0
    6.7540  -22.0560   20.3470 C   0  0  0  0  0  0  0  0  0  0  0  0
    7.7020  -22.3790   21.3430 C   0  0  0  0  0  0  0  0  0  0  0  0
    7.5420  -23.4900   22.1820 C   0  0  0  0  0  0  0  0  0  0  0  0
    6.4300  -24.2790   21.9840 C   0  0  0  0  0  0  0  0  0  0  0  0
    5.4820  -23.9990   21.0060 C   0  0  0  0  0  0  0  0  0  0  0  0
    5.6290  -22.8930   20.1840 C   0  0  0  0  0  0  0  0  0  0  0  0
    4.4090  -25.0340   21.0250 C   0  0  0  0  0  0  0  0  0  0  0  0
    4.8510  -25.9310   22.0790 N   0  0  0  0  0  0  0  0  0  0  0  0
    4.0660  -27.0860   22.4800 C   0  0  0  0  0  0  0  0  0  0  0  0
    4.7750  -28.4180   22.2090 C   0  0  0  0  0  0  0  0  0  0  0  0
    3.6360  -29.3990   21.9760 C   0  0  0  0  0  0  0  0  0  0  0  0
    2.6500  -28.5830   21.1580 C   0  0  0  0  0  0  0  0  0  0  0  0
    2.6960  -27.1890   21.7830 C   0  0  0  0  0  0  0  0  0  0  0  0
    6.0200  -25.4990   22.6890 C   0  0  0  0  0  0  0  0  0  0  0  0
    6.6190  -25.9910   23.6250 O   0  0  0  0  0  0  0  0  0  0  0  0
    7.1980  -18.6340   20.0410 C   0  0  0  0  0  0  0  0  0  0  0  0
    8.5220  -18.5350   20.6060 C   0  0  0  0  0  0  0  0  0  0  0  0
    9.2910  -19.4850   20.7010 O   0  0  0  0  0  0  0  0  0  0  0  0
    8.8400  -17.2530   21.0520 N   0  0  0  0  0  0  0  0  0  0  0  0
    7.9910  -16.1570   20.9740 C   0  0  0  0  0  0  0  0  0  0  0  0
    6.7590  -16.2350   20.4360 C   0  0  0  0  0  0  0  0  0  0  0  0
    6.3960  -17.5170   19.9740 C   0  0  0  0  0  0  0  0  0  0  0  0
  1  2  3  0
  3  2  1  1
  3  4  1  0
  4  5  1  0
  5  6  1  0
  6  7  1  0
  7  8  1  0
  8  9  1  0
  9 10  1  6
 10 11  1  0
 11 12  2  0
 12 13  1  0
 13 14  1  0
 14 15  2  0
 15 16  1  0
 16 17  2  0
 17 18  1  0
 18 19  2  0
 18 20  1  0
 20 21  1  0
 21 22  1  0
 22 23  1  0
 23 24  1  0
 24 25  1  0
 25 26  1  0
 21 27  1  0
 27 28  2  0
 12 29  1  0
 29 30  1  0
 30 31  2  0
 30 32  1  0
 32 33  1  0
 33 34  2  0
 34 35  1  0
  9  3  1  0
 35 10  1  0
 19 14  1  0
 26 22  1  0
 35 29  2  0
 27 17  1  0
M  END
$$$$
