WFLQKKNSBAQKPU-UHFFFAOYSA-N
     RDKit          3D

 32 35  0  0  0  0  0  0  0  0999 V2000
   -9.9310   -7.3570  -26.5160 O   0  0  0  0  0  0  0  0  0  0  0  0
   -9.2490   -8.2620  -26.9820 C   0  0  0  0  0  0  0  0  0  0  0  0
   -9.2420   -8.7070  -28.2890 N   0  0  0  0  0  0  0  0  0  0  0  0
  -10.0480   -8.2710  -29.3730 C   0  0  0  0  0  0  0  0  0  0  0  0
  -11.4430   -8.1940  -29.2790 C   0  0  0  0  0  0  0  0  0  0  0  0
  -12.2150   -7.7580  -30.3610 C   0  0  0  0  0  0  0  0  0  0  0  0
  -11.6000   -7.3950  -31.5530 C   0  0  0  0  0  0  0  0  0  0  0  0
  -12.5540   -6.8620  -32.8810 Cl  0  0  0  0  0  0  0  0  0  0  0  0
  -10.2170   -7.4640  -31.6780 C   0  0  0  0  0  0  0  0  0  0  0  0
   -9.4330   -7.9020  -30.5950 C   0  0  0  0  0  0  0  0  0  0  0  0
   -7.9550   -7.9820  -30.7470 C   0  0  0  0  0  0  0  0  0  0  0  0
   -7.3660   -8.6520  -31.5790 O   0  0  0  0  0  0  0  0  0  0  0  0
   -7.2840   -7.2300  -29.8590 O   0  0  0  0  0  0  0  0  0  0  0  0
   -8.3000   -8.9580  -26.0670 C   0  0  0  0  0  0  0  0  0  0  0  0
   -7.2000   -9.6850  -26.5470 C   0  0  0  0  0  0  0  0  0  0  0  0
   -6.3450  -10.3350  -25.6530 C   0  0  0  0  0  0  0  0  0  0  0  0
   -6.5920  -10.2810  -24.2820 C   0  0  0  0  0  0  0  0  0  0  0  0
   -7.7090   -9.5850  -23.8080 C   0  0  0  0  0  0  0  0  0  0  0  0
   -8.0240   -9.4950  -22.0570 S   0  0  0  0  0  0  0  0  0  0  0  0
   -7.2420  -10.5390  -21.4310 O   0  0  0  0  0  0  0  0  0  0  0  0
   -9.4610   -9.4340  -21.8840 O   0  0  0  0  0  0  0  0  0  0  0  0
   -7.3780   -7.9960  -21.6120 N   0  0  0  0  0  0  0  0  0  0  0  0
   -8.2450   -7.0750  -20.8420 C   0  0  0  0  0  0  0  0  0  0  0  0
   -7.7440   -5.6420  -21.0290 C   0  0  0  0  0  0  0  0  0  0  0  0
   -6.2820   -5.5140  -20.6840 C   0  0  0  0  0  0  0  0  0  0  0  0
   -5.7490   -4.2660  -20.3400 C   0  0  0  0  0  0  0  0  0  0  0  0
   -4.3910   -4.1350  -20.0500 C   0  0  0  0  0  0  0  0  0  0  0  0
   -3.5550   -5.2460  -20.1100 C   0  0  0  0  0  0  0  0  0  0  0  0
   -4.0740   -6.4920  -20.4660 C   0  0  0  0  0  0  0  0  0  0  0  0
   -5.4370   -6.6370  -20.7650 C   0  0  0  0  0  0  0  0  0  0  0  0
   -5.9770   -8.0050  -21.1360 C   0  0  0  0  0  0  0  0  0  0  0  0
   -8.5530   -8.9080  -24.6920 C   0  0  0  0  0  0  0  0  0  0  0  0
  1  2  2  0
  2  3  1  0
  3  4  1  0
  4  5  2  0
  5  6  1  0
  6  7  2  0
  7  8  1  0
  7  9  1  0
  9 10  2  0
 10 11  1  0
 11 12  2  0
 11 13  1  0
  2 14  1  0
 14 15  2  0
 15 16  1  0
 16 17  2  0
 17 18  1  0
 18 19  1  0
 19 20  2  0
 19 21  2  0
 19 22  1  0
 22 23  1  0
 23 24  1  0
 24 25  1  0
 25 26  2  0
 26 27  1  0
 27 28  2  0
 28 29  1  0
 29 30  2  0
 30 31  1  0
 18 32  2  0
 10  4  1  0
 32 14  1  0
 31 22  1  0
 30 25  1  0
M  END
$$$$
