WFLQKKNSBAQKPU-UHFFFAOYSA-N
     RDKit          3D

 32 35  0  0  0  0  0  0  0  0999 V2000
   -7.4400   -7.9910  -28.4210 O   0  0  0  0  0  0  0  0  0  0  0  0
   -8.2220   -8.2950  -27.5280 C   0  0  0  0  0  0  0  0  0  0  0  0
   -9.5860   -8.0850  -27.5120 N   0  0  0  0  0  0  0  0  0  0  0  0
  -10.3890   -7.4300  -28.4820 C   0  0  0  0  0  0  0  0  0  0  0  0
   -9.9980   -7.3230  -29.8230 C   0  0  0  0  0  0  0  0  0  0  0  0
  -10.8080   -6.6740  -30.7600 C   0  0  0  0  0  0  0  0  0  0  0  0
  -12.0210   -6.1210  -30.3670 C   0  0  0  0  0  0  0  0  0  0  0  0
  -13.0120   -5.3230  -31.5240 Cl  0  0  0  0  0  0  0  0  0  0  0  0
  -12.4350   -6.2080  -29.0430 C   0  0  0  0  0  0  0  0  0  0  0  0
  -11.6260   -6.8580  -28.0930 C   0  0  0  0  0  0  0  0  0  0  0  0
  -12.0770   -6.9320  -26.6770 C   0  0  0  0  0  0  0  0  0  0  0  0
  -12.9860   -7.6320  -26.2610 O   0  0  0  0  0  0  0  0  0  0  0  0
  -11.3810   -6.1330  -25.8510 O   0  0  0  0  0  0  0  0  0  0  0  0
   -7.6710   -8.9860  -26.3280 C   0  0  0  0  0  0  0  0  0  0  0  0
   -6.5890   -9.8760  -26.4110 C   0  0  0  0  0  0  0  0  0  0  0  0
   -6.1140  -10.5130  -25.2620 C   0  0  0  0  0  0  0  0  0  0  0  0
   -6.7260  -10.2840  -24.0300 C   0  0  0  0  0  0  0  0  0  0  0  0
   -7.8260   -9.4240  -23.9550 C   0  0  0  0  0  0  0  0  0  0  0  0
   -8.6040   -9.1090  -22.3830 S   0  0  0  0  0  0  0  0  0  0  0  0
   -8.3330  -10.2530  -21.5390 O   0  0  0  0  0  0  0  0  0  0  0  0
   -9.9630   -8.6900  -22.6550 O   0  0  0  0  0  0  0  0  0  0  0  0
   -7.7550   -7.7770  -21.7760 N   0  0  0  0  0  0  0  0  0  0  0  0
   -8.4770   -6.8580  -20.8680 C   0  0  0  0  0  0  0  0  0  0  0  0
   -7.7920   -5.4910  -20.8920 C   0  0  0  0  0  0  0  0  0  0  0  0
   -6.3200   -5.6000  -20.5840 C   0  0  0  0  0  0  0  0  0  0  0  0
   -5.6180   -4.4870  -20.1050 C   0  0  0  0  0  0  0  0  0  0  0  0
   -4.2510   -4.5730  -19.8480 C   0  0  0  0  0  0  0  0  0  0  0  0
   -3.5720   -5.7670  -20.0760 C   0  0  0  0  0  0  0  0  0  0  0  0
   -4.2600   -6.8780  -20.5670 C   0  0  0  0  0  0  0  0  0  0  0  0
   -5.6350   -6.8040  -20.8340 C   0  0  0  0  0  0  0  0  0  0  0  0
   -6.3590   -8.0310  -21.3540 C   0  0  0  0  0  0  0  0  0  0  0  0
   -8.2890   -8.7590  -25.0930 C   0  0  0  0  0  0  0  0  0  0  0  0
  1  2  2  0
  2  3  1  0
  3  4  1  0
  4  5  2  0
  5  6  1  0
  6  7  2  0
  7  8  1  0
  7  9  1  0
  9 10  2  0
 10 11  1  0
 11 12  2  0
 11 13  1  0
  2 14  1  0
 14 15  2  0
 15 16  1  0
 16 17  2  0
 17 18  1  0
 18 19  1  0
 19 20  2  0
 19 21  2  0
 19 22  1  0
 22 23  1  0
 23 24  1  0
 24 25  1  0
 25 26  2  0
 26 27  1  0
 27 28  2  0
 28 29  1  0
 29 30  2  0
 30 31  1  0
 18 32  2  0
 10  4  1  0
 32 14  1  0
 31 22  1  0
 30 25  1  0
M  END
$$$$
