WBABMFHWOJEJNP-UHFFFAOYSA-N
     RDKit          3D

 33 36  0  0  0  0  0  0  0  0999 V2000
  137.6470  -16.8970  165.6980 N   0  0  0  0  0  0  0  0  0  0  0  0
  137.4440  -18.0880  166.1650 C   0  0  0  0  0  0  0  0  0  0  0  0
  138.4570  -18.9830  166.0890 N   0  0  0  0  0  0  0  0  0  0  0  0
  136.1490  -18.4810  166.7770 C   0  0  0  0  0  0  0  0  0  0  0  0
  136.1460  -19.1770  167.9830 C   0  0  0  0  0  0  0  0  0  0  0  0
  134.9310  -19.5020  168.5740 C   0  0  0  0  0  0  0  0  0  0  0  0
  133.7270  -19.1520  167.9480 C   0  0  0  0  0  0  0  0  0  0  0  0
  133.7040  -18.4760  166.7140 C   0  0  0  0  0  0  0  0  0  0  0  0
  132.4690  -18.0940  166.0800 N   0  0  0  0  0  0  0  0  0  0  0  0
  131.4600  -19.0900  165.7220 C   0  0  0  0  0  0  0  0  0  0  0  0
  131.6450  -19.5870  164.2960 C   0  0  0  0  0  0  0  0  0  0  0  0
  132.7960  -18.8540  163.6070 C   0  0  0  0  0  0  0  0  0  0  0  0
  132.4340  -17.4220  163.2350 C   0  0  0  0  0  0  0  0  0  0  0  0
  131.7490  -16.7080  164.3170 N   0  0  0  0  0  0  0  0  0  0  0  0
  130.3610  -16.2740  164.0730 C   0  0  0  0  0  0  0  0  0  0  0  0
  129.6360  -17.1530  163.0420 C   0  0  0  0  0  0  0  0  0  0  0  0
  128.1870  -16.7090  162.8550 C   0  0  0  0  0  0  0  0  0  0  0  0
  128.0510  -15.2340  162.8630 N   0  0  0  0  0  0  0  0  0  0  0  0
  126.6040  -14.5880  162.2530 S   0  0  0  0  0  0  0  0  0  0  0  0
  125.7110  -15.6860  161.9460 O   0  0  0  0  0  0  0  0  0  0  0  0
  126.9480  -13.6060  161.2450 O   0  0  0  0  0  0  0  0  0  0  0  0
  125.9160  -13.7150  163.6430 C   0  0  0  0  0  0  0  0  0  0  0  0
  124.8810  -14.2940  164.3800 C   0  0  0  0  0  0  0  0  0  0  0  0
  124.3170  -13.5900  165.4480 C   0  0  0  0  0  0  0  0  0  0  0  0
  124.7540  -12.3010  165.7650 C   0  0  0  0  0  0  0  0  0  0  0  0
  124.2070  -11.6160  166.8340 N   0  0  0  0  0  0  0  0  0  0  0  0
  125.7840  -11.7310  165.0110 C   0  0  0  0  0  0  0  0  0  0  0  0
  126.3600  -12.4260  163.9450 C   0  0  0  0  0  0  0  0  0  0  0  0
  129.3010  -14.4950  162.5990 C   0  0  0  0  0  0  0  0  0  0  0  0
  130.2720  -14.7740  163.7390 C   0  0  0  0  0  0  0  0  0  0  0  0
  132.2360  -16.7890  165.6270 C   0  0  0  0  0  0  0  0  0  0  0  0
  132.4530  -15.7850  166.3030 O   0  0  0  0  0  0  0  0  0  0  0  0
  134.9440  -18.1310  166.1500 C   0  0  0  0  0  0  0  0  0  0  0  0
  1  2  2  0
  2  3  1  0
  2  4  1  0
  4  5  2  0
  5  6  1  0
  6  7  2  0
  7  8  1  0
  8  9  1  0
  9 10  1  0
 10 11  1  0
 11 12  1  0
 12 13  1  0
 13 14  1  0
 14 15  1  0
 15 16  1  0
 16 17  1  0
 17 18  1  0
 18 19  1  0
 19 20  2  0
 19 21  2  0
 19 22  1  0
 22 23  2  0
 23 24  1  0
 24 25  2  0
 25 26  1  0
 25 27  1  0
 27 28  2  0
 18 29  1  0
 29 30  1  0
 14 31  1  0
 31 32  2  0
  8 33  2  0
 33  4  1  0
 31  9  1  0
 30 15  1  0
 28 22  1  0
M  END
$$$$
