WBABMFHWOJEJNP-UHFFFAOYSA-N
     RDKit          3D

 33 36  0  0  0  0  0  0  0  0999 V2000
  138.5050  -19.1400  167.4050 N   0  0  0  0  0  0  0  0  0  0  0  0
  137.8840  -18.7330  166.3440 C   0  0  0  0  0  0  0  0  0  0  0  0
  138.4350  -17.7200  165.6340 N   0  0  0  0  0  0  0  0  0  0  0  0
  136.6080  -19.3480  165.8970 C   0  0  0  0  0  0  0  0  0  0  0  0
  136.5990  -20.6750  165.4770 C   0  0  0  0  0  0  0  0  0  0  0  0
  135.3950  -21.2580  165.1020 C   0  0  0  0  0  0  0  0  0  0  0  0
  134.2110  -20.5090  165.1280 C   0  0  0  0  0  0  0  0  0  0  0  0
  134.1990  -19.1570  165.5190 C   0  0  0  0  0  0  0  0  0  0  0  0
  132.9810  -18.3910  165.5680 N   0  0  0  0  0  0  0  0  0  0  0  0
  132.2930  -18.1410  166.8340 C   0  0  0  0  0  0  0  0  0  0  0  0
  132.0970  -16.6530  167.1340 C   0  0  0  0  0  0  0  0  0  0  0  0
  133.0960  -15.7590  166.3990 C   0  0  0  0  0  0  0  0  0  0  0  0
  132.7600  -15.6010  164.9220 C   0  0  0  0  0  0  0  0  0  0  0  0
  131.8720  -16.6560  164.4250 N   0  0  0  0  0  0  0  0  0  0  0  0
  130.7290  -16.2450  163.5880 C   0  0  0  0  0  0  0  0  0  0  0  0
  130.5850  -14.7190  163.4880 C   0  0  0  0  0  0  0  0  0  0  0  0
  129.4270  -14.3300  162.5720 C   0  0  0  0  0  0  0  0  0  0  0  0
  128.2550  -15.2190  162.7470 N   0  0  0  0  0  0  0  0  0  0  0  0
  126.7710  -14.6730  162.1280 S   0  0  0  0  0  0  0  0  0  0  0  0
  125.9700  -15.8280  161.7810 O   0  0  0  0  0  0  0  0  0  0  0  0
  127.0530  -13.6420  161.1500 O   0  0  0  0  0  0  0  0  0  0  0  0
  125.9980  -13.8900  163.5270 C   0  0  0  0  0  0  0  0  0  0  0  0
  124.9840  -14.5560  164.2210 C   0  0  0  0  0  0  0  0  0  0  0  0
  124.3520  -13.9240  165.2950 C   0  0  0  0  0  0  0  0  0  0  0  0
  124.6990  -12.6210  165.6630 C   0  0  0  0  0  0  0  0  0  0  0  0
  124.0860  -12.0080  166.7380 N   0  0  0  0  0  0  0  0  0  0  0  0
  125.7070  -11.9630  164.9520 C   0  0  0  0  0  0  0  0  0  0  0  0
  126.3510  -12.5860  163.8800 C   0  0  0  0  0  0  0  0  0  0  0  0
  128.2370  -15.9780  164.0120 C   0  0  0  0  0  0  0  0  0  0  0  0
  129.4210  -16.9370  164.0120 C   0  0  0  0  0  0  0  0  0  0  0  0
  132.3070  -17.9870  164.4090 C   0  0  0  0  0  0  0  0  0  0  0  0
  132.0910  -18.7310  163.4530 O   0  0  0  0  0  0  0  0  0  0  0  0
  135.4230  -18.5970  165.9210 C   0  0  0  0  0  0  0  0  0  0  0  0
  1  2  2  0
  2  3  1  0
  2  4  1  0
  4  5  2  0
  5  6  1  0
  6  7  2  0
  7  8  1  0
  8  9  1  0
  9 10  1  0
 10 11  1  0
 11 12  1  0
 12 13  1  0
 13 14  1  0
 14 15  1  0
 15 16  1  0
 16 17  1  0
 17 18  1  0
 18 19  1  0
 19 20  2  0
 19 21  2  0
 19 22  1  0
 22 23  2  0
 23 24  1  0
 24 25  2  0
 25 26  1  0
 25 27  1  0
 27 28  2  0
 18 29  1  0
 29 30  1  0
 14 31  1  0
 31 32  2  0
  8 33  2  0
 33  4  1  0
 31  9  1  0
 30 15  1  0
 28 22  1  0
M  END
$$$$
