LBNIAVAXSURFQL-MHZLTWQESA-N
     RDKit          3D

 35 39  0  0  0  0  0  0  0  0999 V2000
   -2.0660   11.7310   21.1580 O   0  0  0  0  0  0  0  0  0  0  0  0
   -2.2130   11.4480   22.3480 C   0  0  0  0  0  0  0  0  0  0  0  0
   -3.2450   11.9120   23.1220 N   0  0  0  0  0  0  0  0  0  0  0  0
   -4.2370   12.8440   22.6320 C   0  0  0  0  0  0  0  0  0  0  0  0
   -5.5420   12.1320   22.3930 C   0  0  0  0  0  0  0  0  0  0  0  0
   -6.7090   12.5230   23.0610 C   0  0  0  0  0  0  0  0  0  0  0  0
   -7.9200   11.8830   22.7980 C   0  0  0  0  0  0  0  0  0  0  0  0
   -7.9760   10.8550   21.8550 C   0  0  0  0  0  0  0  0  0  0  0  0
   -6.8270   10.4500   21.1630 C   0  0  0  0  0  0  0  0  0  0  0  0
   -6.8930    9.3940   20.1400 C   0  0  0  0  0  0  0  0  0  0  0  0
   -6.7990    8.0500   20.5320 C   0  0  0  0  0  0  0  0  0  0  0  0
   -6.8640    7.0230   19.5910 C   0  0  0  0  0  0  0  0  0  0  0  0
   -7.0340    7.3250   18.2390 C   0  0  0  0  0  0  0  0  0  0  0  0
   -7.1470    8.6550   17.7980 C   0  0  0  0  0  0  0  0  0  0  0  0
   -7.3350    8.9610   16.3600 C   0  0  0  0  0  0  0  0  0  0  0  0
   -8.5050    8.9040   15.6860 C   0  0  0  0  0  0  0  0  0  0  0  0
   -8.1980    9.3170   14.3610 C   0  0  0  0  0  0  0  0  0  0  0  0
   -8.8610    9.4920   13.2160 C   0  0  0  0  0  0  0  0  0  0  0  0
   -8.2090    9.9290   12.0840 N   0  0  0  0  0  0  0  0  0  0  0  0
   -6.8580   10.2020   12.0860 C   0  0  0  0  0  0  0  0  0  0  0  0
   -6.0740   10.0710   13.1690 C   0  0  0  0  0  0  0  0  0  0  0  0
   -6.7460    9.6050   14.3970 C   0  0  0  0  0  0  0  0  0  0  0  0
   -6.2460    9.3970   15.5850 N   0  0  0  0  0  0  0  0  0  0  0  0
   -7.0570    9.6790   18.7690 C   0  0  0  0  0  0  0  0  0  0  0  0
   -7.1260   11.0060   18.4020 O   0  0  0  0  0  0  0  0  0  0  0  0
   -5.6130   11.0970   21.4470 C   0  0  0  0  0  0  0  0  0  0  0  0
   -1.2320   10.4910   23.0500 C   0  0  1  0  0  0  0  0  0  0  0  0
   -0.0340   10.3810   22.2670 O   0  0  0  0  0  0  0  0  0  0  0  0
   -0.8460   10.9920   24.4470 C   0  0  0  0  0  0  0  0  0  0  0  0
   -1.1630   10.0140   25.5540 C   0  0  0  0  0  0  0  0  0  0  0  0
   -0.3500    8.8910   25.7620 C   0  0  0  0  0  0  0  0  0  0  0  0
   -0.6120    8.0150   26.8160 C   0  0  0  0  0  0  0  0  0  0  0  0
   -1.6950    8.2440   27.6620 C   0  0  0  0  0  0  0  0  0  0  0  0
   -2.5190    9.3500   27.4560 C   0  0  0  0  0  0  0  0  0  0  0  0
   -2.2540   10.2320   26.4050 C   0  0  0  0  0  0  0  0  0  0  0  0
  1  2  2  0
  2  3  1  0
  3  4  1  0
  4  5  1  0
  5  6  2  0
  6  7  1  0
  7  8  2  0
  8  9  1  0
  9 10  1  0
 10 11  2  0
 11 12  1  0
 12 13  2  0
 13 14  1  0
 14 15  1  0
 15 16  2  0
 16 17  1  0
 17 18  2  0
 18 19  1  0
 19 20  1  0
 20 21  2  0
 21 22  1  0
 22 23  2  0
 14 24  2  0
 24 25  1  0
  9 26  2  0
  2 27  1  0
 27 28  1  6
 27 29  1  0
 29 30  1  0
 30 31  2  0
 31 32  1  0
 32 33  2  0
 33 34  1  0
 34 35  2  0
 26  5  1  0
 35 30  1  0
 24 10  1  0
 23 15  1  0
 22 17  1  0
M  END
$$$$
