XAKLZFYPIQVZMO-UHFFFAOYSA-N
     RDKit          3D

 34 37  0  0  0  0  0  0  0  0999 V2000
   21.6990   33.3620   17.3970 N   0  0  0  0  0  0  0  0  0  0  0  0
   21.7300   34.5050   17.2000 C   0  0  0  0  0  0  0  0  0  0  0  0
   21.7250   35.9100   16.9920 C   0  0  0  0  0  0  0  0  0  0  0  0
   22.7850   36.5060   16.2550 C   0  0  0  0  0  0  0  0  0  0  0  0
   23.6390   37.0280   15.6680 N   0  0  0  0  0  0  0  0  0  0  0  0
   20.7400   36.6860   17.4850 C   0  0  0  0  0  0  0  0  0  0  0  0
   19.6240   36.3240   18.2080 N   0  0  0  0  0  0  0  0  0  0  0  0
   18.3430   35.9730   17.7440 C   0  0  0  0  0  0  0  0  0  0  0  0
   17.2400   36.2540   18.5520 C   0  0  0  0  0  0  0  0  0  0  0  0
   15.9440   35.9170   18.1470 C   0  0  0  0  0  0  0  0  0  0  0  0
   15.6960   35.2860   16.9390 C   0  0  0  0  0  0  0  0  0  0  0  0
   14.4310   35.0110   16.6170 N   0  0  0  0  0  0  0  0  0  0  0  0
   14.2300   34.4140   15.4390 C   0  0  0  0  0  0  0  0  0  0  0  0
   15.1740   34.0580   14.5650 N   0  0  0  0  0  0  0  0  0  0  0  0
   16.4500   34.3170   14.9080 C   0  0  0  0  0  0  0  0  0  0  0  0
   17.4810   33.9190   14.0280 N   0  0  0  0  0  0  0  0  0  0  0  0
   17.4610   33.7030   12.6380 C   0  0  0  0  0  0  0  0  0  0  0  0
   18.1050   32.6240   12.0250 C   0  0  0  0  0  0  0  0  0  0  0  0
   18.0460   32.4250   10.6370 C   0  0  0  0  0  0  0  0  0  0  0  0
   17.3250   33.3020    9.8270 C   0  0  0  0  0  0  0  0  0  0  0  0
   17.2170   33.2000    8.4660 O   0  0  0  0  0  0  0  0  0  0  0  0
   17.8830   32.1160    7.8220 C   0  0  0  0  0  0  0  0  0  0  0  0
   16.8660   31.0720    7.4210 C   0  0  0  0  0  0  0  0  0  0  0  0
   15.4930   31.2740    7.6450 C   0  0  0  0  0  0  0  0  0  0  0  0
   14.5600   30.2950    7.2980 C   0  0  0  0  0  0  0  0  0  0  0  0
   14.9870   29.0950    6.7320 C   0  0  0  0  0  0  0  0  0  0  0  0
   16.3450   28.8860    6.5230 C   0  0  0  0  0  0  0  0  0  0  0  0
   16.7580   27.7310    5.9850 F   0  0  0  0  0  0  0  0  0  0  0  0
   17.2840   29.8540    6.8640 C   0  0  0  0  0  0  0  0  0  0  0  0
   16.6590   34.3740   10.4360 C   0  0  0  0  0  0  0  0  0  0  0  0
   15.7260   35.5000    9.5070 Cl  0  0  0  0  0  0  0  0  0  0  0  0
   16.7210   34.5680   11.8220 C   0  0  0  0  0  0  0  0  0  0  0  0
   16.7820   34.9680   16.1150 C   0  0  0  0  0  0  0  0  0  0  0  0
   18.0990   35.3240   16.5300 C   0  0  0  0  0  0  0  0  0  0  0  0
  1  2  3  0
  2  3  1  0
  3  4  1  0
  4  5  3  0
  3  6  2  0
  6  7  1  0
  7  8  1  0
  8  9  2  0
  9 10  1  0
 10 11  2  0
 11 12  1  0
 12 13  2  0
 13 14  1  0
 14 15  2  0
 15 16  1  0
 16 17  1  0
 17 18  2  0
 18 19  1  0
 19 20  2  0
 20 21  1  0
 21 22  1  0
 22 23  1  0
 23 24  2  0
 24 25  1  0
 25 26  2  0
 26 27  1  0
 27 28  1  0
 27 29  2  0
 20 30  1  0
 30 31  1  0
 30 32  2  0
 15 33  1  0
 33 34  2  0
 34  8  1  0
 33 11  1  0
 32 17  1  0
 29 23  1  0
M  END
$$$$
