OZYBACPIVBLIER-UHFFFAOYSA-N
     RDKit          3D

 36 39  0  0  0  0  0  0  0  0999 V2000
  126.8250  -15.6820  164.1790 N   0  0  0  0  0  0  0  0  0  0  0  0
  128.0410  -15.3090  163.6190 C   0  0  0  0  0  0  0  0  0  0  0  0
  129.2240  -15.8990  164.0820 C   0  0  0  0  0  0  0  0  0  0  0  0
  130.4670  -15.5770  163.5140 C   0  0  0  0  0  0  0  0  0  0  0  0
  131.6870  -16.2300  164.0430 C   0  0  0  0  0  0  0  0  0  0  0  0
  132.7160  -16.5100  163.3070 N   0  0  0  0  0  0  0  0  0  0  0  0
  133.6700  -17.1430  164.1380 O   0  0  0  0  0  0  0  0  0  0  0  0
  133.3040  -16.9110  165.5110 C   0  0  2  0  0  0  0  0  0  0  0  0
  134.1520  -15.7520  166.0640 C   0  0  0  0  0  0  0  0  0  0  0  0
  133.4640  -14.9740  167.0870 N   0  0  0  0  0  0  0  0  0  0  0  0
  133.7050  -15.1240  168.4260 C   0  0  0  0  0  0  0  0  0  0  0  0
  134.4750  -15.9330  168.9250 O   0  0  0  0  0  0  0  0  0  0  0  0
  133.6100  -18.1690  166.3390 C   0  0  0  0  0  0  0  0  0  0  0  0
  132.7480  -19.0200  166.5430 O   0  0  0  0  0  0  0  0  0  0  0  0
  134.8880  -18.1850  166.8500 N   0  0  0  0  0  0  0  0  0  0  0  0
  135.4640  -19.0940  167.7340 C   0  0  0  0  0  0  0  0  0  0  0  0
  136.6660  -19.7480  167.5130 C   0  0  0  0  0  0  0  0  0  0  0  0
  137.1300  -20.6510  168.4740 C   0  0  0  0  0  0  0  0  0  0  0  0
  136.3840  -20.8940  169.6270 C   0  0  0  0  0  0  0  0  0  0  0  0
  136.8450  -21.8190  170.6700 C   0  0  0  0  0  0  0  0  0  0  0  0
  136.5800  -23.1950  170.5060 C   0  0  0  0  0  0  0  0  0  0  0  0
  136.9720  -24.1300  171.4670 C   0  0  0  0  0  0  0  0  0  0  0  0
  137.6380  -23.7130  172.6130 C   0  0  0  0  0  0  0  0  0  0  0  0
  137.9170  -22.3580  172.8000 C   0  0  0  0  0  0  0  0  0  0  0  0
  137.5250  -21.4150  171.8360 C   0  0  0  0  0  0  0  0  0  0  0  0
  137.9210  -19.7030  172.0850 S   0  0  0  0  0  0  0  0  0  0  0  0
  138.8890  -19.6750  173.4630 N   0  0  0  0  0  0  0  0  0  0  0  0
  136.7140  -19.0040  172.4590 O   0  0  0  0  0  0  0  0  0  0  0  0
  138.8000  -19.2640  171.0270 O   0  0  0  0  0  0  0  0  0  0  0  0
  135.1900  -20.1890  169.7500 C   0  0  0  0  0  0  0  0  0  0  0  0
  134.7210  -19.3000  168.8400 N   0  0  0  0  0  0  0  0  0  0  0  0
  131.8150  -16.6230  165.4750 C   0  0  0  0  0  0  0  0  0  0  0  0
  130.5310  -14.6520  162.4680 C   0  0  0  0  0  0  0  0  0  0  0  0
  129.3600  -14.0630  161.9880 C   0  0  0  0  0  0  0  0  0  0  0  0
  128.1260  -14.3950  162.5540 C   0  0  0  0  0  0  0  0  0  0  0  0
  126.7020  -13.6430  161.9190 Cl  0  0  0  0  0  0  0  0  0  0  0  0
  1  2  1  0
  2  3  2  0
  3  4  1  0
  4  5  1  0
  5  6  2  0
  6  7  1  0
  7  8  1  0
  8  9  1  1
  9 10  1  0
 10 11  1  0
 11 12  2  0
  8 13  1  0
 13 14  2  0
 13 15  1  0
 15 16  1  0
 16 17  2  0
 17 18  1  0
 18 19  2  0
 19 20  1  0
 20 21  2  0
 21 22  1  0
 22 23  2  0
 23 24  1  0
 24 25  2  0
 25 26  1  0
 26 27  1  0
 26 28  2  0
 26 29  2  0
 19 30  1  0
 30 31  2  0
  8 32  1  0
  4 33  2  0
 33 34  1  0
 34 35  2  0
 35 36  1  0
 35  2  1  0
 32  5  1  0
 31 16  1  0
 25 20  1  0
M  END
$$$$
