JPMPBRCMWMZEJM-NRFANRHFSA-N
     RDKit          3D

 31 34  0  0  0  0  0  0  0  0999 V2000
   45.3420  -42.5950  105.2830 C   0  0  0  0  0  0  0  0  0  0  0  0
   45.2440  -41.8040  106.5530 C   0  0  0  0  0  0  0  0  0  0  0  0
   46.3220  -41.7490  107.4260 C   0  0  0  0  0  0  0  0  0  0  0  0
   46.1970  -41.0040  108.5900 C   0  0  0  0  0  0  0  0  0  0  0  0
   45.0000  -40.3400  108.8510 C   0  0  0  0  0  0  0  0  0  0  0  0
   43.9500  -40.4390  107.9380 C   0  0  0  0  0  0  0  0  0  0  0  0
   42.6470  -39.7680  108.1330 C   0  0  0  0  0  0  0  0  0  0  0  0
   41.7090  -39.6280  107.0940 C   0  0  0  0  0  0  0  0  0  0  0  0
   40.4740  -38.9950  107.2970 C   0  0  0  0  0  0  0  0  0  0  0  0
   40.1470  -38.4780  108.5480 C   0  0  0  0  0  0  0  0  0  0  0  0
   38.9840  -37.8410  108.8800 O   0  0  0  0  0  0  0  0  0  0  0  0
   38.6780  -37.7300  110.2720 C   0  0  0  0  0  0  0  0  0  0  0  0
   37.6640  -38.8200  110.6100 C   0  0  0  0  0  0  0  0  0  0  0  0
   36.2550  -38.2640  110.7700 C   0  0  0  0  0  0  0  0  0  0  0  0
   35.4310  -38.7870  109.7300 O   0  0  0  0  0  0  0  0  0  0  0  0
   35.5010  -38.1720  108.5090 C   0  0  0  0  0  0  0  0  0  0  0  0
   35.6370  -39.0540  107.4230 C   0  0  0  0  0  0  0  0  0  0  0  0
   35.7160  -38.5830  106.1090 C   0  0  0  0  0  0  0  0  0  0  0  0
   35.6730  -37.2150  105.8950 C   0  0  0  0  0  0  0  0  0  0  0  0
   35.5360  -36.3350  106.9750 C   0  0  0  0  0  0  0  0  0  0  0  0
   35.4430  -36.7950  108.2820 C   0  0  0  0  0  0  0  0  0  0  0  0
   35.4590  -34.9160  106.5040 C   0  0  0  0  0  0  0  0  0  0  0  0
   36.0600  -35.0410  105.0990 C   0  0  0  0  0  0  0  0  0  0  0  0
   35.6990  -36.4580  104.5910 C   0  0  1  0  0  0  0  0  0  0  0  0
   36.6950  -36.9950  103.5650 C   0  0  0  0  0  0  0  0  0  0  0  0
   36.7240  -36.1550  102.3190 C   0  0  0  0  0  0  0  0  0  0  0  0
   35.9210  -36.1560  101.4030 O   0  0  0  0  0  0  0  0  0  0  0  0
   37.8050  -35.3520  102.2790 O   0  0  0  0  0  0  0  0  0  0  0  0
   41.0680  -38.5940  109.5880 C   0  0  0  0  0  0  0  0  0  0  0  0
   42.2990  -39.2270  109.3820 C   0  0  0  0  0  0  0  0  0  0  0  0
   44.0770  -41.1610  106.7940 N   0  0  0  0  0  0  0  0  0  0  0  0
  1  2  1  0
  2  3  2  0
  3  4  1  0
  4  5  2  0
  5  6  1  0
  6  7  1  0
  7  8  2  0
  8  9  1  0
  9 10  2  0
 10 11  1  0
 11 12  1  0
 12 13  1  0
 13 14  1  0
 14 15  1  0
 15 16  1  0
 16 17  2  0
 17 18  1  0
 18 19  2  0
 19 20  1  0
 20 21  2  0
 20 22  1  0
 22 23  1  0
 23 24  1  0
 24 25  1  6
 25 26  1  0
 26 27  2  0
 26 28  1  0
 10 29  1  0
 29 30  2  0
  6 31  2  0
 31  2  1  0
 30  7  1  0
 21 16  1  0
 24 19  1  0
M  END
$$$$
