AMCWIARZLJUBEG-UWELNFAVSA-N
     RDKit          3D

 30 34  0  0  0  0  0  0  0  0999 V2000
    3.8960  -19.9120   20.5220 C   0  0  0  0  0  0  0  0  0  0  0  0
    4.5810  -21.1760   20.4380 N   0  0  0  0  0  0  0  0  0  0  0  0
    4.7840  -22.1150   21.4120 C   0  0  0  0  0  0  0  0  0  0  0  0
    5.1730  -23.3100   20.9340 C   0  0  0  0  0  0  0  0  0  0  0  0
    5.4740  -24.5240   21.6550 C   0  0  0  0  0  0  0  0  0  0  0  0
    4.7090  -25.6290   21.6110 C   0  0  0  0  0  0  0  0  0  0  0  0
    5.0700  -26.7450   22.3420 N   0  0  0  0  0  0  0  0  0  0  0  0
    4.4260  -27.9320   22.4380 N   0  0  0  0  0  0  0  0  0  0  0  0
    5.1400  -28.6320   23.3200 C   0  0  0  0  0  0  0  0  0  0  0  0
    6.2620  -27.9290   23.7840 C   0  0  0  0  0  0  0  0  0  0  0  0
    6.2160  -26.7260   23.1130 C   0  0  0  0  0  0  0  0  0  0  0  0
    7.0050  -25.5240   23.0800 C   0  0  0  0  0  0  0  0  0  0  0  0
    8.2500  -25.4380   23.8140 C   0  0  0  0  0  0  0  0  0  0  0  0
    9.2910  -24.4960   23.6280 C   0  0  0  0  0  0  0  0  0  0  0  0
   10.3100  -24.6710   24.4730 N   0  0  0  0  0  0  0  0  0  0  0  0
    9.9580  -25.7590   25.1730 N   0  0  0  0  0  0  0  0  0  0  0  0
   10.8080  -26.2850   26.2900 C   0  0  1  0  0  0  0  0  0  0  0  0
   10.3860  -25.6760   27.6260 C   0  0  0  0  0  0  0  0  0  0  0  0
   11.3130  -26.0420   28.7070 C   0  0  0  0  0  0  0  0  0  0  0  0
   12.0710  -26.3600   29.5230 N   0  0  0  0  0  0  0  0  0  0  0  0
   11.0420  -27.8280   26.2120 C   0  0  0  0  0  0  0  0  0  0  0  0
   12.2900  -27.5540   25.3320 C   0  0  2  0  0  0  0  0  0  0  0  0
   13.4330  -28.4010   25.5860 C   0  0  0  0  0  0  0  0  0  0  0  0
   14.3470  -29.0800   25.8060 N   0  0  0  0  0  0  0  0  0  0  0  0
   12.3380  -26.1480   25.9790 C   0  0  0  0  0  0  0  0  0  0  0  0
    8.7360  -26.2590   24.8160 C   0  0  0  0  0  0  0  0  0  0  0  0
    6.6450  -24.4700   22.4050 N   0  0  0  0  0  0  0  0  0  0  0  0
    5.1900  -23.0970   19.4460 C   0  0  0  0  0  0  0  0  0  0  0  0
    5.4880  -23.9110   18.5890 O   0  0  0  0  0  0  0  0  0  0  0  0
    4.7970  -21.7850   19.2250 N   0  0  0  0  0  0  0  0  0  0  0  0
  1  2  1  0
  2  3  1  0
  3  4  2  0
  4  5  1  0
  5  6  2  0
  6  7  1  0
  7  8  1  0
  8  9  2  0
  9 10  1  0
 10 11  2  0
 11 12  1  0
 12 13  1  0
 13 14  1  0
 14 15  2  0
 15 16  1  0
 16 17  1  0
 17 18  1  6
 18 19  1  0
 19 20  3  0
 17 21  1  0
 21 22  1  0
 22 23  1  6
 23 24  3  0
 22 25  1  0
 16 26  1  0
 12 27  2  0
  4 28  1  0
 28 29  2  0
 28 30  1  0
 30  2  1  0
 27  5  1  0
 11  7  1  0
 26 13  2  0
 25 17  1  0
M  END
$$$$
