AXURMJQZEHWANG-MRXNPFEDSA-N
     RDKit          3D

 40 44  0  0  0  0  0  0  0  0999 V2000
    1.2510  -15.0340   17.8760 C   0  0  0  0  0  0  0  0  0  0  0  0
    0.9040  -14.5460   19.2890 C   0  0  2  0  0  0  0  0  0  0  0  0
    1.9550  -15.0450   20.3180 C   0  0  0  0  0  0  0  0  0  0  0  0
    2.1380  -14.4830   21.3960 O   0  0  0  0  0  0  0  0  0  0  0  0
    2.5880  -16.1940   19.8710 N   0  0  0  0  0  0  0  0  0  0  0  0
    3.3990  -17.1020   20.5830 C   0  0  0  0  0  0  0  0  0  0  0  0
    2.7540  -17.8980   21.5420 C   0  0  0  0  0  0  0  0  0  0  0  0
    3.4630  -18.7770   22.3580 C   0  0  0  0  0  0  0  0  0  0  0  0
    4.8530  -18.8770   22.2570 C   0  0  0  0  0  0  0  0  0  0  0  0
    5.5380  -18.1120   21.2900 C   0  0  0  0  0  0  0  0  0  0  0  0
    6.9250  -17.9900   20.9210 C   0  0  0  0  0  0  0  0  0  0  0  0
    8.0850  -18.6820   21.4720 C   0  0  0  0  0  0  0  0  0  0  0  0
    8.0110  -20.0360   21.3600 N   0  0  0  0  0  0  0  0  0  0  0  0
    9.0180  -20.7710   21.8510 C   0  0  0  0  0  0  0  0  0  0  0  0
    8.8670  -22.1430   21.7140 N   0  0  0  0  0  0  0  0  0  0  0  0
    7.9090  -23.0750   22.1410 C   0  0  0  0  0  0  0  0  0  0  0  0
    7.9750  -23.7760   23.3500 C   0  0  0  0  0  0  0  0  0  0  0  0
    6.9840  -24.6950   23.7080 C   0  0  0  0  0  0  0  0  0  0  0  0
    5.8930  -24.9210   22.8690 C   0  0  0  0  0  0  0  0  0  0  0  0
    5.8150  -24.2260   21.6640 C   0  0  0  0  0  0  0  0  0  0  0  0
    4.4340  -24.4530   20.5930 S   0  0  0  0  0  0  0  0  0  0  0  0
    3.5070  -25.7770   21.3220 C   0  0  0  0  0  0  0  0  0  0  0  0
    4.9430  -24.8930   19.3080 O   0  0  0  0  0  0  0  0  0  0  0  0
    3.6230  -23.2490   20.6780 O   0  0  0  0  0  0  0  0  0  0  0  0
    6.8080  -23.3200   21.3020 C   0  0  0  0  0  0  0  0  0  0  0  0
    6.7400  -22.6700   20.1300 F   0  0  0  0  0  0  0  0  0  0  0  0
   10.0930  -20.2320   22.4390 N   0  0  0  0  0  0  0  0  0  0  0  0
   10.1440  -18.8860   22.5270 C   0  0  0  0  0  0  0  0  0  0  0  0
    9.1590  -18.0420   22.0630 C   0  0  0  0  0  0  0  0  0  0  0  0
    9.3300  -16.3460   22.2960 Cl  0  0  0  0  0  0  0  0  0  0  0  0
    6.9700  -17.1350   19.8390 C   0  0  0  0  0  0  0  0  0  0  0  0
    5.7020  -16.6710   19.6090 N   0  0  0  0  0  0  0  0  0  0  0  0
    4.7950  -17.2540   20.4690 C   0  0  0  0  0  0  0  0  0  0  0  0
   -0.4670  -14.8500   19.7900 N   0  0  0  0  0  0  0  0  0  0  0  0
   -0.8000  -16.2870   19.7460 C   0  0  0  0  0  0  0  0  0  0  0  0
   -2.2560  -16.5880   20.1960 C   0  0  0  0  0  0  0  0  0  0  0  0
   -3.2940  -15.8200   19.4810 N   0  0  0  0  0  0  0  0  0  0  0  0
   -3.4780  -16.2930   18.1100 C   0  0  0  0  0  0  0  0  0  0  0  0
   -2.9430  -14.3880   19.5240 C   0  0  0  0  0  0  0  0  0  0  0  0
   -1.4920  -14.0510   19.0860 C   0  0  0  0  0  0  0  0  0  0  0  0
  2  1  1  6
  2  3  1  0
  3  4  2  0
  3  5  1  0
  5  6  1  0
  6  7  2  0
  7  8  1  0
  8  9  2  0
  9 10  1  0
 10 11  1  0
 11 12  1  0
 12 13  2  0
 13 14  1  0
 14 15  1  0
 15 16  1  0
 16 17  2  0
 17 18  1  0
 18 19  2  0
 19 20  1  0
 20 21  1  0
 21 22  1  0
 21 23  2  0
 21 24  2  0
 20 25  2  0
 25 26  1  0
 14 27  2  0
 27 28  1  0
 28 29  2  0
 29 30  1  0
 11 31  2  0
 31 32  1  0
 32 33  1  0
  2 34  1  0
 34 35  1  0
 35 36  1  0
 36 37  1  0
 37 38  1  0
 37 39  1  0
 39 40  1  0
 33  6  1  0
 40 34  1  0
 33 10  2  0
 29 12  1  0
 25 16  1  0
M  END
$$$$
