WYCVSPRVSFUVMA-UHFFFAOYSA-N
     RDKit          3D

 37 40  0  0  0  0  0  0  0  0999 V2000
  124.3120  -22.7170  162.6710 N   0  0  0  0  0  0  0  0  0  0  0  0
  124.4980  -21.6240  162.0020 C   0  0  0  0  0  0  0  0  0  0  0  0
  123.6400  -21.3570  160.9870 N   0  0  0  0  0  0  0  0  0  0  0  0
  125.6010  -20.6840  162.3260 C   0  0  0  0  0  0  0  0  0  0  0  0
  126.6070  -20.4400  161.3850 C   0  0  0  0  0  0  0  0  0  0  0  0
  127.6170  -19.5170  161.6720 C   0  0  0  0  0  0  0  0  0  0  0  0
  127.6270  -18.8260  162.8970 C   0  0  0  0  0  0  0  0  0  0  0  0
  128.6890  -17.7760  163.1660 C   0  0  2  0  0  0  0  0  0  0  0  0
  129.0770  -17.8360  164.5710 N   0  0  0  0  0  0  0  0  0  0  0  0
  130.2220  -18.4400  164.9790 C   0  0  0  0  0  0  0  0  0  0  0  0
  130.9570  -19.1030  164.2650 O   0  0  0  0  0  0  0  0  0  0  0  0
  130.4160  -18.1800  166.2880 O   0  0  0  0  0  0  0  0  0  0  0  0
  131.6150  -18.7580  166.8130 C   0  0  0  0  0  0  0  0  0  0  0  0
  132.6330  -17.6560  166.9510 C   0  0  0  0  0  0  0  0  0  0  0  0
  132.2960  -16.4510  167.5860 C   0  0  0  0  0  0  0  0  0  0  0  0
  133.2280  -15.4170  167.6810 C   0  0  0  0  0  0  0  0  0  0  0  0
  134.5020  -15.5720  167.1400 C   0  0  0  0  0  0  0  0  0  0  0  0
  134.8470  -16.7630  166.5030 C   0  0  0  0  0  0  0  0  0  0  0  0
  133.9160  -17.8000  166.4050 C   0  0  0  0  0  0  0  0  0  0  0  0
  128.2660  -16.0370  162.7300 P   0  0  0  0  0  0  0  0  0  0  0  0
  128.1390  -15.7790  161.2500 O   0  0  0  0  0  0  0  0  0  0  0  0
  129.3400  -15.1240  163.5270 O   0  0  0  0  0  0  0  0  0  0  0  0
  130.6500  -15.0360  163.1510 C   0  0  0  0  0  0  0  0  0  0  0  0
  131.6080  -15.5230  164.0410 C   0  0  0  0  0  0  0  0  0  0  0  0
  132.9600  -15.4770  163.7010 C   0  0  0  0  0  0  0  0  0  0  0  0
  133.3520  -14.9220  162.4820 C   0  0  0  0  0  0  0  0  0  0  0  0
  132.3920  -14.4040  161.6090 C   0  0  0  0  0  0  0  0  0  0  0  0
  131.0370  -14.4540  161.9470 C   0  0  0  0  0  0  0  0  0  0  0  0
  126.9000  -15.7760  163.5500 O   0  0  0  0  0  0  0  0  0  0  0  0
  126.4470  -14.5530  163.9480 C   0  0  0  0  0  0  0  0  0  0  0  0
  125.2780  -14.5590  164.7100 C   0  0  0  0  0  0  0  0  0  0  0  0
  124.7340  -13.3590  165.1730 C   0  0  0  0  0  0  0  0  0  0  0  0
  125.3560  -12.1520  164.8620 C   0  0  0  0  0  0  0  0  0  0  0  0
  126.5220  -12.1450  164.0930 C   0  0  0  0  0  0  0  0  0  0  0  0
  127.0670  -13.3460  163.6330 C   0  0  0  0  0  0  0  0  0  0  0  0
  126.6370  -19.1150  163.8480 C   0  0  0  0  0  0  0  0  0  0  0  0
  125.6230  -20.0310  163.5610 C   0  0  0  0  0  0  0  0  0  0  0  0
  1  2  2  0
  2  3  1  0
  2  4  1  0
  4  5  2  0
  5  6  1  0
  6  7  2  0
  7  8  1  0
  8  9  1  1
  9 10  1  0
 10 11  2  0
 10 12  1  0
 12 13  1  0
 13 14  1  0
 14 15  2  0
 15 16  1  0
 16 17  2  0
 17 18  1  0
 18 19  2  0
  8 20  1  0
 20 21  2  0
 20 22  1  0
 22 23  1  0
 23 24  2  0
 24 25  1  0
 25 26  2  0
 26 27  1  0
 27 28  2  0
 20 29  1  0
 29 30  1  0
 30 31  2  0
 31 32  1  0
 32 33  2  0
 33 34  1  0
 34 35  2  0
  7 36  1  0
 36 37  2  0
 37  4  1  0
 19 14  1  0
 28 23  1  0
 35 30  1  0
M  END
$$$$
