BUMADWVVVPZKNG-UHFFFAOYSA-N
     RDKit          3D

 33 37  0  0  0  0  0  0  0  0999 V2000
   22.4100   34.9050   12.9590 C   0  0  0  0  0  0  0  0  0  0  0  0
   22.8300   35.6990   14.1150 N   0  0  0  0  0  0  0  0  0  0  0  0
   21.8660   36.7550   14.4460 C   0  0  0  0  0  0  0  0  0  0  0  0
   20.6000   36.2430   15.1250 C   0  0  0  0  0  0  0  0  0  0  0  0
   20.9360   35.4090   16.3640 C   0  0  0  0  0  0  0  0  0  0  0  0
   19.6880   34.8800   16.8470 O   0  0  0  0  0  0  0  0  0  0  0  0
   18.9610   35.6420   17.7320 C   0  0  0  0  0  0  0  0  0  0  0  0
   19.5720   36.5280   18.6210 C   0  0  0  0  0  0  0  0  0  0  0  0
   18.7860   37.3020   19.4640 C   0  0  0  0  0  0  0  0  0  0  0  0
   17.3960   37.2000   19.4040 C   0  0  0  0  0  0  0  0  0  0  0  0
   16.7600   36.3440   18.5170 C   0  0  0  0  0  0  0  0  0  0  0  0
   15.4260   36.3350   18.5360 N   0  0  0  0  0  0  0  0  0  0  0  0
   14.8210   35.5120   17.6780 C   0  0  0  0  0  0  0  0  0  0  0  0
   15.4240   34.6980   16.8130 N   0  0  0  0  0  0  0  0  0  0  0  0
   16.7710   34.7090   16.7950 C   0  0  0  0  0  0  0  0  0  0  0  0
   17.4460   33.8430   15.9030 N   0  0  0  0  0  0  0  0  0  0  0  0
   17.5560   33.8030   14.5060 C   0  0  0  0  0  0  0  0  0  0  0  0
   18.6680   33.3070   13.8270 C   0  0  0  0  0  0  0  0  0  0  0  0
   18.7090   33.2810   12.4280 C   0  0  0  0  0  0  0  0  0  0  0  0
   17.6370   33.7520   11.6720 C   0  0  0  0  0  0  0  0  0  0  0  0
   17.8020   33.6570   10.3180 O   0  0  0  0  0  0  0  0  0  0  0  0
   16.6190   33.4930    9.5310 C   0  0  0  0  0  0  0  0  0  0  0  0
   16.8110   32.3650    8.5410 C   0  0  0  0  0  0  0  0  0  0  0  0
   18.0180   32.2260    7.8540 C   0  0  0  0  0  0  0  0  0  0  0  0
   18.1750   31.1590    6.9740 C   0  0  0  0  0  0  0  0  0  0  0  0
   17.1300   30.2590    6.8020 C   0  0  0  0  0  0  0  0  0  0  0  0
   15.9690   30.4600    7.5280 C   0  0  0  0  0  0  0  0  0  0  0  0
   15.7890   31.4810    8.3960 N   0  0  0  0  0  0  0  0  0  0  0  0
   16.5230   34.2630   12.3320 C   0  0  0  0  0  0  0  0  0  0  0  0
   16.4870   34.2840   13.7330 C   0  0  0  0  0  0  0  0  0  0  0  0
   17.5310   35.5440   17.6570 C   0  0  0  0  0  0  0  0  0  0  0  0
   21.9140   34.2920   15.9840 C   0  0  0  0  0  0  0  0  0  0  0  0
   23.1430   34.8600   15.2770 C   0  0  0  0  0  0  0  0  0  0  0  0
  1  2  1  0
  2  3  1  0
  3  4  1  0
  4  5  1  0
  5  6  1  0
  6  7  1  0
  7  8  2  0
  8  9  1  0
  9 10  2  0
 10 11  1  0
 11 12  2  0
 12 13  1  0
 13 14  2  0
 14 15  1  0
 15 16  1  0
 16 17  1  0
 17 18  2  0
 18 19  1  0
 19 20  2  0
 20 21  1  0
 21 22  1  0
 22 23  1  0
 23 24  2  0
 24 25  1  0
 25 26  2  0
 26 27  1  0
 27 28  2  0
 20 29  1  0
 29 30  2  0
 15 31  2  0
  5 32  1  0
 32 33  1  0
 33  2  1  0
 31  7  1  0
 31 11  1  0
 30 17  1  0
 28 23  1  0
M  END
$$$$
