PUPKZNCFZQRDIJ-UHFFFAOYSA-N
     RDKit          3D

 30 34  0  0  0  0  0  0  0  0999 V2000
    5.7120  -19.2510   22.3100 C   0  0  0  0  0  0  0  0  0  0  0  0
    5.8730  -20.6450   21.9950 N   0  0  0  0  0  0  0  0  0  0  0  0
    5.5860  -21.7250   22.7740 C   0  0  0  0  0  0  0  0  0  0  0  0
    5.9260  -22.8010   21.9860 C   0  0  0  0  0  0  0  0  0  0  0  0
    5.8240  -24.2120   22.3190 C   0  0  0  0  0  0  0  0  0  0  0  0
    6.8000  -24.8020   23.1260 C   0  0  0  0  0  0  0  0  0  0  0  0
    6.7250  -26.1600   23.4630 C   0  0  0  0  0  0  0  0  0  0  0  0
    7.7740  -26.7120   24.3030 C   0  0  0  0  0  0  0  0  0  0  0  0
    7.8470  -27.9880   24.8980 C   0  0  0  0  0  0  0  0  0  0  0  0
    8.9860  -28.1130   25.5830 N   0  0  0  0  0  0  0  0  0  0  0  0
    9.5540  -26.9080   25.3920 N   0  0  0  0  0  0  0  0  0  0  0  0
   10.9060  -26.5630   25.9210 C   0  0  1  0  0  0  0  0  0  0  0  0
   10.8970  -25.1850   26.5860 C   0  0  0  0  0  0  0  0  0  0  0  0
   10.5910  -25.2660   28.0220 C   0  0  0  0  0  0  0  0  0  0  0  0
   10.3530  -25.3280   29.1550 N   0  0  0  0  0  0  0  0  0  0  0  0
   11.4580  -27.7270   26.8030 C   0  0  0  0  0  0  0  0  0  0  0  0
   12.8390  -27.5150   26.1320 C   0  0  1  0  0  0  0  0  0  0  0  0
   13.5890  -28.7160   25.8400 C   0  0  0  0  0  0  0  0  0  0  0  0
   14.1960  -29.6790   25.6150 N   0  0  0  0  0  0  0  0  0  0  0  0
   12.0810  -26.8790   24.9390 C   0  0  0  0  0  0  0  0  0  0  0  0
    8.8720  -26.0180   24.6410 N   0  0  0  0  0  0  0  0  0  0  0  0
    5.6460  -26.9560   22.9910 C   0  0  0  0  0  0  0  0  0  0  0  0
    5.4660  -28.3260   23.2910 C   0  0  0  0  0  0  0  0  0  0  0  0
    4.3750  -29.0250   22.7910 C   0  0  0  0  0  0  0  0  0  0  0  0
    3.4810  -28.3380   21.9990 C   0  0  0  0  0  0  0  0  0  0  0  0
    3.6060  -27.0300   21.6880 N   0  0  0  0  0  0  0  0  0  0  0  0
    4.6620  -26.3560   22.1750 C   0  0  0  0  0  0  0  0  0  0  0  0
    4.7710  -25.0100   21.8570 C   0  0  0  0  0  0  0  0  0  0  0  0
    6.3960  -22.3390   20.7810 N   0  0  0  0  0  0  0  0  0  0  0  0
    6.3600  -21.0120   20.8010 N   0  0  0  0  0  0  0  0  0  0  0  0
  1  2  1  0
  2  3  1  0
  3  4  2  0
  4  5  1  0
  5  6  2  0
  6  7  1  0
  7  8  1  0
  8  9  1  0
  9 10  2  0
 10 11  1  0
 11 12  1  0
 12 13  1  1
 13 14  1  0
 14 15  3  0
 12 16  1  0
 16 17  1  0
 17 18  1  6
 18 19  3  0
 17 20  1  0
 11 21  1  0
  7 22  2  0
 22 23  1  0
 23 24  2  0
 24 25  1  0
 25 26  2  0
 26 27  1  0
 27 28  2  0
  4 29  1  0
 29 30  2  0
 30  2  1  0
 28  5  1  0
 21  8  2  0
 27 22  1  0
 20 12  1  0
M  END
$$$$
