SDTXZRMORPGVBY-UMSPYCQHSA-N
     RDKit          3D

 22 24  0  0  0  0  0  0  0  0999 V2000
    6.2600  -28.9590   24.1480 N   0  0  0  0  0  0  0  0  0  0  0  0
    5.2380  -28.6090   23.3120 C   0  0  0  0  0  0  0  0  0  0  0  0
    4.4130  -29.4410   22.9540 O   0  0  0  0  0  0  0  0  0  0  0  0
    5.1830  -27.2020   22.8300 C   0  0  0  0  0  0  0  0  0  0  0  0
    4.1960  -26.8700   21.8890 C   0  0  0  0  0  0  0  0  0  0  0  0
    4.0730  -25.5700   21.3840 C   0  0  0  0  0  0  0  0  0  0  0  0
    4.9760  -24.6150   21.8660 C   0  0  0  0  0  0  0  0  0  0  0  0
    5.9530  -24.9170   22.8080 C   0  0  0  0  0  0  0  0  0  0  0  0
    6.0650  -26.2230   23.3070 C   0  0  0  0  0  0  0  0  0  0  0  0
    6.6930  -23.8080   23.1180 N   0  0  0  0  0  0  0  0  0  0  0  0
    6.2010  -22.8220   22.3920 C   0  0  0  0  0  0  0  0  0  0  0  0
    6.7100  -21.4040   22.3990 C   0  0  2  0  0  0  0  0  0  0  0  0
    5.5410  -20.4160   22.5680 C   0  0  0  0  0  0  0  0  0  0  0  0
    5.8110  -19.0350   21.9560 C   0  0  0  0  0  0  0  0  0  0  0  0
    7.2930  -18.6770   21.9520 C   0  0  1  0  0  0  0  0  0  0  0  0
    7.7510  -18.6520   23.3040 O   0  0  0  0  0  0  0  0  0  0  0  0
    8.1220  -19.6880   21.1540 C   0  0  0  0  0  0  0  0  0  0  0  0
    7.5080  -21.0940   21.1260 C   0  0  0  0  0  0  0  0  0  0  0  0
    5.1560  -23.2720   21.6120 N   0  0  0  0  0  0  0  0  0  0  0  0
    4.3610  -22.4900   20.6860 C   0  0  0  0  0  0  0  0  0  0  0  0
    4.5450  -22.9470   19.2450 C   0  0  0  0  0  0  0  0  0  0  0  0
    5.8830  -22.6920   18.8320 O   0  0  0  0  0  0  0  0  0  0  0  0
  1  2  1  0
  2  3  2  0
  2  4  1  0
  4  5  2  0
  5  6  1  0
  6  7  2  0
  7  8  1  0
  8  9  2  0
  8 10  1  0
 10 11  2  0
 12 11  1  1
 12 13  1  0
 13 14  1  0
 14 15  1  0
 15 16  1  6
 15 17  1  0
 17 18  1  0
 11 19  1  0
 19 20  1  0
 20 21  1  0
 21 22  1  0
  9  4  1  0
 18 12  1  0
 19  7  1  0
M  END
$$$$
