AQOBTKMEQOANSS-FEZSWGLMSA-N
     RDKit          3D

 39 42  0  0  0  0  0  0  0  0999 V2000
  133.2610  118.1460   35.5660 C   0  0  0  0  0  0  0  0  0  0  0  0
  133.9460  116.7830   35.5960 C   0  0  0  0  0  0  0  0  0  0  0  0
  134.6800  116.5390   36.8490 N   0  0  0  0  0  0  0  0  0  0  0  0
  134.5160  115.1440   37.2970 C   0  0  0  0  0  0  0  0  0  0  0  0
  133.6950  114.2310   36.3910 C   0  0  0  0  0  0  0  0  0  0  0  0
  134.3570  117.5430   37.8770 C   0  0  0  0  0  0  0  0  0  0  0  0
  135.3480  117.5730   39.0500 C   0  0  0  0  0  0  0  0  0  0  0  0
  135.2270  118.8770   39.8440 C   0  0  0  0  0  0  0  0  0  0  0  0
  133.7770  119.1380   40.2650 C   0  0  0  0  0  0  0  0  0  0  0  0
  133.5100  118.7110   41.7080 C   0  0  0  0  0  0  0  0  0  0  0  0
  132.6790  117.5510   41.6990 O   0  0  0  0  0  0  0  0  0  0  0  0
  133.2860  116.3420   41.8920 C   0  0  0  0  0  0  0  0  0  0  0  0
  133.4320  115.9730   43.2300 C   0  0  0  0  0  0  0  0  0  0  0  0
  134.0290  114.7600   43.5730 C   0  0  0  0  0  0  0  0  0  0  0  0
  134.4930  113.9010   42.5720 C   0  0  0  0  0  0  0  0  0  0  0  0
  134.3550  114.2620   41.2220 C   0  0  0  0  0  0  0  0  0  0  0  0
  133.7400  115.4810   40.8910 C   0  0  0  0  0  0  0  0  0  0  0  0
  134.8010  113.3220   40.1320 C   0  0  0  0  0  0  0  0  0  0  0  0
  135.9950  112.4850   40.5770 C   0  0  0  0  0  0  0  0  0  0  0  0
  135.7100  111.7750   41.8700 C   0  0  0  0  0  0  0  0  0  0  0  0
  135.9400  110.4780   42.1440 C   0  0  0  0  0  0  0  0  0  0  0  0
  136.5210  109.5160   41.2050 C   0  0  0  0  0  0  0  0  0  0  0  0
  135.7500  109.0450   40.1380 C   0  0  0  0  0  0  0  0  0  0  0  0
  136.2860  108.1280   39.2300 C   0  0  0  0  0  0  0  0  0  0  0  0
  137.6000  107.6620   39.3820 C   0  0  0  0  0  0  0  0  0  0  0  0
  138.1880  106.6810   38.3860 C   0  0  0  0  0  0  0  0  0  0  0  0
  138.9640  107.3300   37.3190 N   0  0  0  0  0  0  0  0  0  0  0  0
  139.3970  106.3770   36.3000 C   0  0  0  0  0  0  0  0  0  0  0  0
  138.2750  108.4980   36.7500 C   0  0  0  0  0  0  0  0  0  0  0  0
  138.7790  109.8650   37.1670 C   0  0  0  0  0  0  0  0  0  0  0  0
  137.9220  110.9760   37.1600 C   0  0  0  0  0  0  0  0  0  0  0  0
  138.3870  112.2340   37.5470 C   0  0  0  0  0  0  0  0  0  0  0  0
  139.7120  112.3990   37.9420 C   0  0  0  0  0  0  0  0  0  0  0  0
  140.5760  111.3050   37.9470 C   0  0  0  0  0  0  0  0  0  0  0  0
  140.1140  110.0460   37.5610 C   0  0  0  0  0  0  0  0  0  0  0  0
  138.3670  108.1370   40.4560 C   0  0  0  0  0  0  0  0  0  0  0  0
  137.8300  109.0520   41.3650 C   0  0  0  0  0  0  0  0  0  0  0  0
  135.1010  112.6000   42.9630 C   0  0  0  0  0  0  0  0  0  0  0  0
  135.0950  112.2350   44.1340 O   0  0  0  0  0  0  0  0  0  0  0  0
  1  2  1  0
  2  3  1  0
  3  4  1  0
  4  5  1  0
  3  6  1  0
  6  7  1  0
  7  8  1  0
  8  9  1  0
  9 10  1  0
 10 11  1  0
 11 12  1  0
 12 13  2  0
 13 14  1  0
 14 15  2  0
 15 16  1  0
 16 17  2  0
 16 18  1  0
 18 19  1  0
 19 20  1  0
 20 21  2  0
 21 22  1  0
 22 23  2  0
 23 24  1  0
 24 25  2  0
 25 26  1  0
 26 27  1  0
 27 28  1  0
 27 29  1  0
 29 30  1  0
 30 31  2  0
 31 32  1  0
 32 33  2  0
 33 34  1  0
 34 35  2  0
 25 36  1  0
 36 37  2  0
 20 38  1  0
 38 39  2  0
 17 12  1  0
 37 22  1  0
 38 15  1  0
 35 30  1  0
M  END
$$$$
