OOZNMURDAKWFQS-RUZDIDTESA-N
     RDKit          3D

 31 34  0  0  0  0  0  0  0  0999 V2000
    2.2350    5.4040   -2.1980 C   0  0  0  0  0  0  0  0  0  0  0  0
    3.3510    6.2820   -2.7780 C   0  0  2  0  0  0  0  0  0  0  0  0
    4.2750    6.6700   -1.6070 C   0  0  0  0  0  0  0  0  0  0  0  0
    4.2550    7.7010   -0.9550 O   0  0  0  0  0  0  0  0  0  0  0  0
    5.2150    5.7380   -1.3350 O   0  0  0  0  0  0  0  0  0  0  0  0
    2.7310    7.5080   -3.4650 C   0  0  0  0  0  0  0  0  0  0  0  0
    3.8170    8.3510   -4.1180 C   0  0  0  0  0  0  0  0  0  0  0  0
    4.7730    7.4780   -4.8730 C   0  0  0  0  0  0  0  0  0  0  0  0
    5.6430    8.0400   -5.8160 C   0  0  0  0  0  0  0  0  0  0  0  0
    6.5400    7.2370   -6.5280 C   0  0  0  0  0  0  0  0  0  0  0  0
    6.5780    5.8610   -6.3020 C   0  0  0  0  0  0  0  0  0  0  0  0
    7.3980    4.9650   -6.9310 O   0  0  0  0  0  0  0  0  0  0  0  0
    8.3590    4.2840   -6.1280 C   0  0  0  0  0  0  0  0  0  0  0  0
    9.7550    4.6070   -6.6470 C   0  0  0  0  0  0  0  0  0  0  0  0
    9.7590    4.9010   -8.1460 C   0  0  0  0  0  0  0  0  0  0  0  0
   10.7900    5.8570   -8.3960 O   0  0  0  0  0  0  0  0  0  0  0  0
   10.5580    6.8120   -9.3500 C   0  0  0  0  0  0  0  0  0  0  0  0
   10.1260    8.1140   -9.0820 C   0  0  0  0  0  0  0  0  0  0  0  0
    9.9130    9.0240  -10.1250 C   0  0  0  0  0  0  0  0  0  0  0  0
   10.1290    8.6570  -11.4610 C   0  0  0  0  0  0  0  0  0  0  0  0
    9.8950    9.6210  -12.6030 C   0  0  0  0  0  0  0  0  0  0  0  0
   10.2100   11.0780  -12.2160 C   0  0  0  0  0  0  0  0  0  0  0  0
   10.7960   11.6950  -13.4770 C   0  0  0  0  0  0  0  0  0  0  0  0
   11.6180   10.5610  -14.0630 C   0  0  0  0  0  0  0  0  0  0  0  0
   10.7330    9.3350  -13.8660 C   0  0  0  0  0  0  0  0  0  0  0  0
   10.5530    7.3490  -11.7280 C   0  0  0  0  0  0  0  0  0  0  0  0
   10.7660    6.4380  -10.6860 C   0  0  0  0  0  0  0  0  0  0  0  0
   11.2960    4.8440  -11.1040 Cl  0  0  0  0  0  0  0  0  0  0  0  0
    5.7200    5.3020   -5.3520 C   0  0  0  0  0  0  0  0  0  0  0  0
    4.8330    6.1030   -4.6340 C   0  0  0  0  0  0  0  0  0  0  0  0
    4.0350    5.4540   -3.7310 O   0  0  0  0  0  0  0  0  0  0  0  0
  2  1  1  1
  2  3  1  0
  3  4  2  0
  3  5  1  0
  2  6  1  0
  6  7  1  0
  7  8  1  0
  8  9  2  0
  9 10  1  0
 10 11  2  0
 11 12  1  0
 12 13  1  0
 13 14  1  0
 14 15  1  0
 15 16  1  0
 16 17  1  0
 17 18  2  0
 18 19  1  0
 19 20  2  0
 20 21  1  0
 21 22  1  0
 22 23  1  0
 23 24  1  0
 24 25  1  0
 20 26  1  0
 26 27  2  0
 27 28  1  0
 11 29  1  0
 29 30  2  0
 30 31  1  0
 31  2  1  0
 30  8  1  0
 27 17  1  0
 25 21  1  0
M  END
$$$$
