KSTNVCYPZQORSY-LYSGITKLSA-N
     RDKit          3D

 28 29  0  0  0  0  0  0  0  0999 V2000
    3.9810    4.2020   -1.1860 C   0  0  0  0  0  0  0  0  0  0  0  0
    4.5350    5.4700   -1.8120 C   0  0  0  0  0  0  0  0  0  0  0  0
    4.6660    6.4950   -0.8290 O   0  0  0  0  0  0  0  0  0  0  0  0
    3.9570    7.7000   -1.1470 C   0  0  1  0  0  0  0  0  0  0  0  0
    3.6000    7.6590   -2.6400 C   0  0  0  0  0  0  0  0  0  0  0  0
    4.5740    8.4590   -3.4780 C   0  0  0  0  0  0  0  0  0  0  0  0
    5.4900    9.3270   -2.8700 C   0  0  0  0  0  0  0  0  0  0  0  0
    6.3770   10.0860   -3.6400 C   0  0  0  0  0  0  0  0  0  0  0  0
    6.3590    9.9870   -5.0310 C   0  0  0  0  0  0  0  0  0  0  0  0
    7.1660   10.6680   -5.9010 O   0  0  0  0  0  0  0  0  0  0  0  0
    8.5490   10.3220   -5.9090 C   0  0  0  0  0  0  0  0  0  0  0  0
    8.9650    9.8020   -7.2590 C   0  0  0  0  0  0  0  0  0  0  0  0
    9.8410   10.3800   -8.0970 C   0  0  0  0  0  0  0  0  0  0  0  0
   10.2220    9.8230   -9.4030 C   0  0  0  0  0  0  0  0  0  0  0  0
   10.1420    8.4530   -9.6800 C   0  0  0  0  0  0  0  0  0  0  0  0
   10.4860    7.9510  -10.9380 C   0  0  0  0  0  0  0  0  0  0  0  0
   10.3660    6.5940  -11.0640 O   0  0  0  0  0  0  0  0  0  0  0  0
   11.4860    5.8120  -10.6630 C   0  0  0  0  0  0  0  0  0  0  0  0
   10.9050    8.8340  -11.9320 C   0  0  0  0  0  0  0  0  0  0  0  0
   10.9760   10.2090  -11.6800 C   0  0  0  0  0  0  0  0  0  0  0  0
   11.3960   10.9590  -12.7460 O   0  0  0  0  0  0  0  0  0  0  0  0
   10.4900   11.0930  -13.8360 C   0  0  0  0  0  0  0  0  0  0  0  0
   10.6290   10.6980  -10.4190 C   0  0  0  0  0  0  0  0  0  0  0  0
    5.4440    9.1250   -5.6400 C   0  0  0  0  0  0  0  0  0  0  0  0
    4.5550    8.3680   -4.8740 C   0  0  0  0  0  0  0  0  0  0  0  0
    2.6670    7.8340   -0.3320 C   0  0  0  0  0  0  0  0  0  0  0  0
    1.9880    6.9370    0.1420 O   0  0  0  0  0  0  0  0  0  0  0  0
    2.3180    9.1210   -0.1080 O   0  0  0  0  0  0  0  0  0  0  0  0
  1  2  1  0
  2  3  1  0
  3  4  1  0
  4  5  1  6
  5  6  1  0
  6  7  2  0
  7  8  1  0
  8  9  2  0
  9 10  1  0
 10 11  1  0
 11 12  1  0
 12 13  2  0
 13 14  1  0
 14 15  2  0
 15 16  1  0
 16 17  1  0
 17 18  1  0
 16 19  2  0
 19 20  1  0
 20 21  1  0
 21 22  1  0
 20 23  2  0
  9 24  1  0
 24 25  2  0
  4 26  1  0
 26 27  2  0
 26 28  1  0
 25  6  1  0
 23 14  1  0
M  END
$$$$
