YGIVJNKHBGEKKY-XLIONFOSSA-N
     RDKit          3D

 35 38  0  0  0  0  0  0  0  0999 V2000
   13.1820  -27.8370   25.2780 C   0  0  0  0  0  0  0  0  0  0  0  0
   12.9730  -28.1010   26.7300 N   0  0  0  0  0  0  0  0  0  0  0  0
   14.2260  -28.5060   27.4920 C   0  0  0  0  0  0  0  0  0  0  0  0
   13.8940  -29.6640   28.4530 C   0  0  0  0  0  0  0  0  0  0  0  0
   15.3010  -29.0540   26.5250 C   0  0  0  0  0  0  0  0  0  0  0  0
   14.8250  -27.3230   28.2670 C   0  0  0  0  0  0  0  0  0  0  0  0
   11.9050  -26.9630   27.4680 S   0  0  0  0  0  0  0  0  0  0  0  0
   12.4840  -25.6460   27.2960 O   0  0  0  0  0  0  0  0  0  0  0  0
   11.5010  -27.4330   28.7740 O   0  0  0  0  0  0  0  0  0  0  0  0
   10.4620  -27.0770   26.4330 C   0  0  0  0  0  0  0  0  0  0  0  0
   10.0260  -25.9740   25.6990 C   0  0  0  0  0  0  0  0  0  0  0  0
    8.8900  -26.0900   24.8920 C   0  0  0  0  0  0  0  0  0  0  0  0
    8.1660  -27.2890   24.8230 C   0  0  0  0  0  0  0  0  0  0  0  0
    7.0340  -27.4670   24.0020 N   0  0  0  0  0  0  0  0  0  0  0  0
    6.2750  -26.5860   23.3060 C   0  0  0  0  0  0  0  0  0  0  0  0
    6.5270  -25.2930   23.0480 N   0  0  0  0  0  0  0  0  0  0  0  0
    5.4870  -24.8710   22.2900 N   0  0  0  0  0  0  0  0  0  0  0  0
    5.5000  -23.4880   21.7840 C   0  0  1  0  0  0  0  0  0  0  0  0
    5.7940  -22.5420   22.9730 C   0  0  0  0  0  0  0  0  0  0  0  0
    5.1590  -21.1600   22.9040 C   0  0  0  0  0  0  0  0  0  0  0  0
    5.8650  -20.1800   21.9730 C   0  0  0  0  0  0  0  0  0  0  0  0
    5.9710  -20.7320   20.5600 C   0  0  0  0  0  0  0  0  0  0  0  0
    6.9760  -21.8630   20.3810 C   0  0  0  0  0  0  0  0  0  0  0  0
    6.5180  -23.3180   20.6260 C   0  0  2  0  0  0  0  0  0  0  0  0
    5.9770  -23.8100   19.3340 C   0  0  0  0  0  0  0  0  0  0  0  0
    5.5300  -24.1310   18.3120 N   0  0  0  0  0  0  0  0  0  0  0  0
    4.5750  -25.8570   22.0680 C   0  0  0  0  0  0  0  0  0  0  0  0
    3.3840  -25.8110   21.3140 C   0  0  0  0  0  0  0  0  0  0  0  0
    2.7110  -26.9780   21.2480 C   0  0  0  0  0  0  0  0  0  0  0  0
    3.1620  -28.1320   21.8760 N   0  0  0  0  0  0  0  0  0  0  0  0
    4.3370  -28.2220   22.6220 C   0  0  0  0  0  0  0  0  0  0  0  0
    4.7090  -29.2640   23.1510 O   0  0  0  0  0  0  0  0  0  0  0  0
    5.0650  -26.9770   22.7000 C   0  0  0  0  0  0  0  0  0  0  0  0
    8.6250  -28.3830   25.5790 C   0  0  0  0  0  0  0  0  0  0  0  0
    9.7650  -28.2840   26.3800 C   0  0  0  0  0  0  0  0  0  0  0  0
  1  2  1  0
  2  3  1  0
  3  4  1  0
  3  5  1  0
  3  6  1  0
  2  7  1  0
  7  8  2  0
  7  9  2  0
  7 10  1  0
 10 11  2  0
 11 12  1  0
 12 13  2  0
 13 14  1  0
 14 15  1  0
 15 16  2  0
 16 17  1  0
 18 17  1  1
 18 19  1  0
 19 20  1  0
 20 21  1  0
 21 22  1  0
 22 23  1  0
 23 24  1  0
 24 25  1  6
 25 26  3  0
 17 27  1  0
 27 28  1  0
 28 29  2  0
 29 30  1  0
 30 31  1  0
 31 32  2  0
 31 33  1  0
 13 34  1  0
 34 35  2  0
 35 10  1  0
 33 15  1  0
 24 18  1  0
 33 27  2  0
M  END
$$$$
