QGFDDMPEQGUIST-INIZCTEOSA-N
     RDKit          3D

 32 35  0  0  0  0  0  0  0  0999 V2000
  132.8350  -15.9090  167.4690 C   0  0  0  0  0  0  0  0  0  0  0  0
  132.1950  -16.4480  166.2160 C   0  0  0  0  0  0  0  0  0  0  0  0
  131.4220  -15.5410  165.4510 C   0  0  0  0  0  0  0  0  0  0  0  0
  130.8530  -15.8930  164.2200 C   0  0  0  0  0  0  0  0  0  0  0  0
  130.0900  -14.9740  163.4540 N   0  0  0  0  0  0  0  0  0  0  0  0
  128.7320  -14.6310  163.7590 C   0  0  0  0  0  0  0  0  0  0  0  0
  128.2730  -13.8980  162.5200 C   0  0  2  0  0  0  0  0  0  0  0  0
  127.5470  -14.8190  161.5290 C   0  0  0  0  0  0  0  0  0  0  0  0
  127.4120  -16.1700  162.0440 N   0  0  0  0  0  0  0  0  0  0  0  0
  126.2190  -16.6470  162.5410 C   0  0  0  0  0  0  0  0  0  0  0  0
  125.2180  -15.9320  162.5740 O   0  0  0  0  0  0  0  0  0  0  0  0
  126.2180  -18.0300  162.9990 C   0  0  0  0  0  0  0  0  0  0  0  0
  127.2050  -18.6550  163.7450 C   0  0  0  0  0  0  0  0  0  0  0  0
  126.8980  -20.0180  164.0330 C   0  0  0  0  0  0  0  0  0  0  0  0
  125.6920  -20.3730  163.4890 C   0  0  0  0  0  0  0  0  0  0  0  0
  124.9370  -21.9110  163.5860 Cl  0  0  0  0  0  0  0  0  0  0  0  0
  124.9310  -19.1150  162.6540 S   0  0  0  0  0  0  0  0  0  0  0  0
  129.4900  -13.4290  161.9220 O   0  0  0  0  0  0  0  0  0  0  0  0
  130.5280  -14.1960  162.3900 C   0  0  0  0  0  0  0  0  0  0  0  0
  131.6400  -14.1280  161.8930 O   0  0  0  0  0  0  0  0  0  0  0  0
  131.0760  -17.1930  163.7600 C   0  0  0  0  0  0  0  0  0  0  0  0
  131.8170  -18.1120  164.5130 C   0  0  0  0  0  0  0  0  0  0  0  0
  132.3670  -17.7690  165.7570 C   0  0  0  0  0  0  0  0  0  0  0  0
  133.0480  -18.7830  166.5190 N   0  0  0  0  0  0  0  0  0  0  0  0
  132.3390  -19.6230  167.3730 C   0  0  0  0  0  0  0  0  0  0  0  0
  132.9380  -20.5780  168.0920 C   0  0  0  0  0  0  0  0  0  0  0  0
  134.3560  -20.7740  167.9910 C   0  0  0  0  0  0  0  0  0  0  0  0
  135.0990  -20.0200  167.1690 C   0  0  0  0  0  0  0  0  0  0  0  0
  136.5720  -20.1950  166.9790 C   0  0  0  0  0  0  0  0  0  0  0  0
  137.2750  -19.0440  167.4280 O   0  0  0  0  0  0  0  0  0  0  0  0
  134.4430  -18.9390  166.3560 C   0  0  0  0  0  0  0  0  0  0  0  0
  135.1640  -18.2460  165.6360 O   0  0  0  0  0  0  0  0  0  0  0  0
  1  2  1  0
  2  3  2  0
  3  4  1  0
  4  5  1  0
  5  6  1  0
  6  7  1  0
  7  8  1  6
  8  9  1  0
  9 10  1  0
 10 11  2  0
 10 12  1  0
 12 13  2  0
 13 14  1  0
 14 15  2  0
 15 16  1  0
 15 17  1  0
  7 18  1  0
 18 19  1  0
 19 20  2  0
  4 21  2  0
 21 22  1  0
 22 23  2  0
 23 24  1  0
 24 25  1  0
 25 26  2  0
 26 27  1  0
 27 28  2  0
 28 29  1  0
 29 30  1  0
 28 31  1  0
 31 32  2  0
 23  2  1  0
 31 24  1  0
 19  5  1  0
 17 12  1  0
M  END
$$$$
