FKTDPTZOFGBLDH-UHFFFAOYSA-N
     RDKit          3D

 24 26  0  0  0  0  0  0  0  0999 V2000
   20.0040   35.1720   18.7040 C   0  0  0  0  0  0  0  0  0  0  0  0
   18.6710   35.0930   19.4200 C   0  0  0  0  0  0  0  0  0  0  0  0
   17.7010   34.5690   18.5080 O   0  0  0  0  0  0  0  0  0  0  0  0
   16.9500   35.5280   17.8830 C   0  0  0  0  0  0  0  0  0  0  0  0
   16.8400   36.6810   18.2850 O   0  0  0  0  0  0  0  0  0  0  0  0
   16.2930   35.0260   16.6760 C   0  0  0  0  0  0  0  0  0  0  0  0
   14.9430   34.7440   16.5600 C   0  0  0  0  0  0  0  0  0  0  0  0
   14.6920   34.2770   15.3050 N   0  0  0  0  0  0  0  0  0  0  0  0
   13.5010   33.8420   14.8720 N   0  0  0  0  0  0  0  0  0  0  0  0
   13.5130   33.4310   13.6440 C   0  0  0  0  0  0  0  0  0  0  0  0
   14.5790   33.4420   12.7820 N   0  0  0  0  0  0  0  0  0  0  0  0
   15.7320   33.8860   13.1910 C   0  0  0  0  0  0  0  0  0  0  0  0
   16.7740   33.9640   12.3050 N   0  0  0  0  0  0  0  0  0  0  0  0
   16.7740   34.7900   11.1220 C   0  0  0  0  0  0  0  0  0  0  0  0
   16.9300   33.9060    9.9100 C   0  0  0  0  0  0  0  0  0  0  0  0
   17.7670   32.7810    9.9640 C   0  0  0  0  0  0  0  0  0  0  0  0
   17.8860   31.9330    8.8640 C   0  0  0  0  0  0  0  0  0  0  0  0
   17.1660   32.1970    7.7020 C   0  0  0  0  0  0  0  0  0  0  0  0
   16.3220   33.3040    7.6400 C   0  0  0  0  0  0  0  0  0  0  0  0
   16.2000   34.1540    8.7390 C   0  0  0  0  0  0  0  0  0  0  0  0
   15.8390   34.2970   14.5660 C   0  0  0  0  0  0  0  0  0  0  0  0
   16.8810   34.7110   15.3920 C   0  0  0  0  0  0  0  0  0  0  0  0
   18.3410   34.8070   15.0570 C   0  0  0  0  0  0  0  0  0  0  0  0
   19.0890   33.5120   15.3400 C   0  0  0  0  0  0  0  0  0  0  0  0
  1  2  1  0
  2  3  1  0
  3  4  1  0
  4  5  2  0
  4  6  1  0
  6  7  2  0
  7  8  1  0
  8  9  1  0
  9 10  2  0
 10 11  1  0
 11 12  2  0
 12 13  1  0
 13 14  1  0
 14 15  1  0
 15 16  2  0
 16 17  1  0
 17 18  2  0
 18 19  1  0
 19 20  2  0
 12 21  1  0
 21 22  2  0
 22 23  1  0
 23 24  1  0
 22  6  1  0
 21  8  1  0
 20 15  1  0
M  END
$$$$
