PEALVEWPZOQWRK-UHFFFAOYSA-N
     RDKit          3D

 30 34  0  0  0  0  0  0  0  0999 V2000
  -24.5750   20.9520   21.6480 C   0  0  0  0  0  0  0  0  0  0  0  0
  -23.1010   20.5690   21.6720 C   0  0  0  0  0  0  0  0  0  0  0  0
  -22.8690   19.0630   21.9120 C   0  0  0  0  0  0  0  0  0  0  0  0
  -23.4850   18.6320   23.2590 C   0  0  0  0  0  0  0  0  0  0  0  0
  -24.4750   17.4820   23.1240 C   0  0  0  0  0  0  0  0  0  0  0  0
  -21.4550   18.7090   21.8230 N   0  0  0  0  0  0  0  0  0  0  0  0
  -20.6070   18.9140   20.7670 C   0  0  0  0  0  0  0  0  0  0  0  0
  -19.3720   18.4180   21.1420 C   0  0  0  0  0  0  0  0  0  0  0  0
  -18.1200   18.4020   20.4140 C   0  0  0  0  0  0  0  0  0  0  0  0
  -17.5090   17.2560   20.3130 N   0  0  0  0  0  0  0  0  0  0  0  0
  -16.2910   17.2000   19.6550 C   0  0  0  0  0  0  0  0  0  0  0  0
  -15.7060   15.8930   19.6130 C   0  0  0  0  0  0  0  0  0  0  0  0
  -16.2260   14.7230   19.0170 C   0  0  0  0  0  0  0  0  0  0  0  0
  -15.4200   13.6660   19.1610 N   0  0  0  0  0  0  0  0  0  0  0  0
  -14.3760   14.1590   19.8490 N   0  0  0  0  0  0  0  0  0  0  0  0
  -13.2700   13.2910   20.2080 C   0  0  0  0  0  0  0  0  0  0  0  0
  -11.9360   13.7820   19.6400 C   0  0  2  0  0  0  0  0  0  0  0  0
  -10.8830   12.6900   19.4900 C   0  0  0  0  0  0  0  0  0  0  0  0
   -9.5570   13.4370   19.5130 C   0  0  0  0  0  0  0  0  0  0  0  0
   -9.8920   14.8380   20.0020 C   0  0  0  0  0  0  0  0  0  0  0  0
  -11.2630   14.7610   20.5240 N   0  0  0  0  0  0  0  0  0  0  0  0
  -14.5020   15.4880   20.1500 C   0  0  0  0  0  0  0  0  0  0  0  0
  -15.7210   18.2930   19.1150 C   0  0  0  0  0  0  0  0  0  0  0  0
  -16.3690   19.5100   19.1960 N   0  0  0  0  0  0  0  0  0  0  0  0
  -15.9660   20.7050   18.7020 N   0  0  0  0  0  0  0  0  0  0  0  0
  -16.9680   21.5370   18.9800 C   0  0  0  0  0  0  0  0  0  0  0  0
  -18.0140   20.9070   19.6730 C   0  0  0  0  0  0  0  0  0  0  0  0
  -17.5920   19.6050   19.8290 C   0  0  0  0  0  0  0  0  0  0  0  0
  -19.5920   17.9630   22.4650 C   0  0  0  0  0  0  0  0  0  0  0  0
  -20.8540   18.1180   22.8710 N   0  0  0  0  0  0  0  0  0  0  0  0
  1  2  1  0
  2  3  1  0
  3  4  1  0
  4  5  1  0
  3  6  1  0
  6  7  1  0
  7  8  2  0
  8  9  1  0
  9 10  2  0
 10 11  1  0
 11 12  1  0
 12 13  1  0
 13 14  2  0
 14 15  1  0
 15 16  1  0
 17 16  1  1
 17 18  1  0
 18 19  1  0
 19 20  1  0
 20 21  1  0
 15 22  1  0
 11 23  2  0
 23 24  1  0
 24 25  1  0
 25 26  2  0
 26 27  1  0
 27 28  2  0
  8 29  1  0
 29 30  2  0
 30  6  1  0
 28  9  1  0
 22 12  2  0
 28 24  1  0
 21 17  1  0
M  END
$$$$
