NBCYDSVKELDZHZ-IBGZPJMESA-N
     RDKit          3D

 29 31  0  0  0  0  0  0  0  0999 V2000
   40.3310  -39.9040  104.9710 C   0  0  0  0  0  0  0  0  0  0  0  0
   40.9130  -39.2610  103.7220 C   0  0  0  0  0  0  0  0  0  0  0  0
   42.4420  -39.2490  103.7600 C   0  0  0  0  0  0  0  0  0  0  0  0
   43.0330  -40.2880  102.8370 C   0  0  0  0  0  0  0  0  0  0  0  0
   42.9770  -40.0920  101.4460 C   0  0  0  0  0  0  0  0  0  0  0  0
   43.5220  -41.0350  100.5660 C   0  0  0  0  0  0  0  0  0  0  0  0
   43.4610  -40.8160   99.1500 C   0  0  0  0  0  0  0  0  0  0  0  0
   43.4100  -40.6370   98.0040 N   0  0  0  0  0  0  0  0  0  0  0  0
   44.1320  -42.1860  101.0710 C   0  0  0  0  0  0  0  0  0  0  0  0
   44.1880  -42.3950  102.4500 C   0  0  0  0  0  0  0  0  0  0  0  0
   43.6200  -41.4640  103.3240 C   0  0  0  0  0  0  0  0  0  0  0  0
   43.7210  -41.6580  104.6750 O   0  0  0  0  0  0  0  0  0  0  0  0
   44.8020  -42.5360  105.0140 C   0  0  0  0  0  0  0  0  0  0  0  0
   45.9120  -41.7160  105.6680 C   0  0  0  0  0  0  0  0  0  0  0  0
   46.0630  -42.0370  107.1550 C   0  0  0  0  0  0  0  0  0  0  0  0
   46.2530  -40.8110  107.8640 O   0  0  0  0  0  0  0  0  0  0  0  0
   45.1330  -40.0810  108.1550 C   0  0  0  0  0  0  0  0  0  0  0  0
   44.6830  -40.2170  109.4820 C   0  0  0  0  0  0  0  0  0  0  0  0
   43.5540  -39.5330  109.9370 C   0  0  0  0  0  0  0  0  0  0  0  0
   42.8850  -38.7080  109.0490 C   0  0  0  0  0  0  0  0  0  0  0  0
   43.3290  -38.5680  107.7300 C   0  0  0  0  0  0  0  0  0  0  0  0
   44.4410  -39.2560  107.2650 C   0  0  0  0  0  0  0  0  0  0  0  0
   42.4290  -37.6560  106.9580 C   0  0  0  0  0  0  0  0  0  0  0  0
   41.7080  -36.9200  108.0970 C   0  0  0  0  0  0  0  0  0  0  0  0
   41.6450  -37.8940  109.2970 C   0  0  1  0  0  0  0  0  0  0  0  0
   40.3950  -38.7710  109.2980 C   0  0  0  0  0  0  0  0  0  0  0  0
   39.2780  -38.1010  110.0410 C   0  0  0  0  0  0  0  0  0  0  0  0
   38.5020  -37.2770  109.5880 O   0  0  0  0  0  0  0  0  0  0  0  0
   39.2020  -38.4850  111.3290 O   0  0  0  0  0  0  0  0  0  0  0  0
  1  2  1  0
  2  3  1  0
  3  4  1  0
  4  5  2  0
  5  6  1  0
  6  7  1  0
  7  8  3  0
  6  9  2  0
  9 10  1  0
 10 11  2  0
 11 12  1  0
 12 13  1  0
 13 14  1  0
 14 15  1  0
 15 16  1  0
 16 17  1  0
 17 18  2  0
 18 19  1  0
 19 20  2  0
 20 21  1  0
 21 22  2  0
 21 23  1  0
 23 24  1  0
 24 25  1  0
 25 26  1  6
 26 27  1  0
 27 28  2  0
 27 29  1  0
 11  4  1  0
 22 17  1  0
 25 20  1  0
M  END
$$$$
