KFGUVXFIUYMGHH-UHFFFAOYSA-N
     RDKit          3D

 33 36  0  0  0  0  0  0  0  0999 V2000
  134.7850  -16.6830  168.6780 N   0  0  0  0  0  0  0  0  0  0  0  0
  134.6620  -16.2130  167.4780 C   0  0  0  0  0  0  0  0  0  0  0  0
  135.7810  -15.7670  166.8540 N   0  0  0  0  0  0  0  0  0  0  0  0
  133.3470  -16.1580  166.7880 C   0  0  0  0  0  0  0  0  0  0  0  0
  132.2070  -16.6690  167.4180 C   0  0  0  0  0  0  0  0  0  0  0  0
  130.9720  -16.6280  166.7650 C   0  0  0  0  0  0  0  0  0  0  0  0
  130.8670  -16.0780  165.4770 C   0  0  0  0  0  0  0  0  0  0  0  0
  129.5400  -16.0560  164.7480 C   0  0  0  0  0  0  0  0  0  0  0  0
  129.6850  -16.5800  163.3930 N   0  0  0  0  0  0  0  0  0  0  0  0
  129.7920  -15.5100  162.3160 N   0  0  0  0  0  0  0  0  0  0  0  0
  128.4140  -15.2190  161.3560 S   0  0  0  0  0  0  0  0  0  0  0  0
  128.7200  -14.0310  160.5850 O   0  0  0  0  0  0  0  0  0  0  0  0
  128.0060  -16.4480  160.7090 O   0  0  0  0  0  0  0  0  0  0  0  0
  127.2010  -14.7930  162.5750 C   0  0  0  0  0  0  0  0  0  0  0  0
  126.2340  -15.7300  162.9390 C   0  0  0  0  0  0  0  0  0  0  0  0
  125.2720  -15.3890  163.8920 C   0  0  0  0  0  0  0  0  0  0  0  0
  125.2680  -14.1120  164.4830 C   0  0  0  0  0  0  0  0  0  0  0  0
  124.3170  -13.7630  165.4550 C   0  0  0  0  0  0  0  0  0  0  0  0
  124.3200  -12.4920  166.0310 C   0  0  0  0  0  0  0  0  0  0  0  0
  125.2720  -11.5540  165.6410 C   0  0  0  0  0  0  0  0  0  0  0  0
  126.2270  -11.8840  164.6790 C   0  0  0  0  0  0  0  0  0  0  0  0
  126.2420  -13.1600  164.0930 C   0  0  0  0  0  0  0  0  0  0  0  0
  127.2000  -13.5090  163.1290 C   0  0  0  0  0  0  0  0  0  0  0  0
  129.9790  -17.9090  163.1420 C   0  0  0  0  0  0  0  0  0  0  0  0
  131.1440  -18.3110  163.1000 O   0  0  0  0  0  0  0  0  0  0  0  0
  128.9180  -18.7890  162.9590 N   0  0  0  0  0  0  0  0  0  0  0  0
  127.5740  -18.5940  163.5140 C   0  0  0  0  0  0  0  0  0  0  0  0
  127.0020  -19.8920  164.0810 C   0  0  0  0  0  0  0  0  0  0  0  0
  126.9310  -20.9990  163.0270 C   0  0  0  0  0  0  0  0  0  0  0  0
  127.9830  -20.8410  161.9270 C   0  0  0  0  0  0  0  0  0  0  0  0
  129.2260  -20.1190  162.4300 C   0  0  0  0  0  0  0  0  0  0  0  0
  132.0190  -15.5690  164.8540 C   0  0  0  0  0  0  0  0  0  0  0  0
  133.2540  -15.6040  165.5070 C   0  0  0  0  0  0  0  0  0  0  0  0
  1  2  2  0
  2  3  1  0
  2  4  1  0
  4  5  2  0
  5  6  1  0
  6  7  2  0
  7  8  1  0
  8  9  1  0
  9 10  1  0
 10 11  1  0
 11 12  2  0
 11 13  2  0
 11 14  1  0
 14 15  2  0
 15 16  1  0
 16 17  2  0
 17 18  1  0
 18 19  2  0
 19 20  1  0
 20 21  2  0
 21 22  1  0
 22 23  2  0
  9 24  1  0
 24 25  2  0
 24 26  1  0
 26 27  1  0
 27 28  1  0
 28 29  1  0
 29 30  1  0
 30 31  1  0
  7 32  1  0
 32 33  2  0
 33  4  1  0
 23 14  1  0
 31 26  1  0
 22 17  1  0
M  END
$$$$
