DIJNMZDNCSWBBP-QFIPXVFZSA-N
     RDKit          3D

 36 38  0  0  0  0  0  0  0  0999 V2000
   -6.3760   16.7460   26.1220 C   0  0  0  0  0  0  0  0  0  0  0  0
   -6.0980   15.2570   25.9310 C   0  0  0  0  0  0  0  0  0  0  0  0
   -4.5890   14.9870   25.8710 C   0  0  0  0  0  0  0  0  0  0  0  0
   -4.2930   13.5110   25.6120 C   0  0  0  0  0  0  0  0  0  0  0  0
   -5.0040   13.0170   24.4330 N   0  0  0  0  0  0  0  0  0  0  0  0
   -4.4670   12.2010   23.4460 C   0  0  0  0  0  0  0  0  0  0  0  0
   -5.1450   11.7840   22.4990 O   0  0  0  0  0  0  0  0  0  0  0  0
   -2.9750   11.8270   23.5060 C   0  0  2  0  0  0  0  0  0  0  0  0
   -2.4650   12.0270   24.9390 C   0  0  0  0  0  0  0  0  0  0  0  0
   -1.8320   10.7780   25.5120 C   0  0  0  0  0  0  0  0  0  0  0  0
   -0.6560   10.2600   24.9520 C   0  0  0  0  0  0  0  0  0  0  0  0
   -0.0820    9.0930   25.4570 C   0  0  0  0  0  0  0  0  0  0  0  0
   -0.6760    8.4270   26.5290 C   0  0  0  0  0  0  0  0  0  0  0  0
   -1.8450    8.9340   27.1000 C   0  0  0  0  0  0  0  0  0  0  0  0
   -2.4670    8.2300   28.2530 C   0  0  0  0  0  0  0  0  0  0  0  0
   -1.8560    7.2870   28.8990 N   0  0  0  0  0  0  0  0  0  0  0  0
   -3.7150    8.5550   28.6700 N   0  0  0  0  0  0  0  0  0  0  0  0
   -2.4250   10.1040   26.5910 C   0  0  0  0  0  0  0  0  0  0  0  0
   -2.2650   12.7570   22.5800 N   0  0  0  0  0  0  0  0  0  0  0  0
   -1.4280   12.0580   21.3030 S   0  0  0  0  0  0  0  0  0  0  0  0
   -0.6750   13.0930   20.6280 O   0  0  0  0  0  0  0  0  0  0  0  0
   -0.8010   10.8610   21.8130 O   0  0  0  0  0  0  0  0  0  0  0  0
   -2.7690   11.5590   20.2560 C   0  0  0  0  0  0  0  0  0  0  0  0
   -3.4350   12.5190   19.4920 C   0  0  0  0  0  0  0  0  0  0  0  0
   -4.4650   12.1140   18.6480 C   0  0  0  0  0  0  0  0  0  0  0  0
   -4.8210   10.7620   18.5660 C   0  0  0  0  0  0  0  0  0  0  0  0
   -4.1620    9.8030   19.3390 C   0  0  0  0  0  0  0  0  0  0  0  0
   -4.4660    8.4270   19.3140 N   0  0  0  0  0  0  0  0  0  0  0  0
   -4.8940    7.6810   18.2280 C   0  0  0  0  0  0  0  0  0  0  0  0
   -4.9850    8.0840   17.0710 O   0  0  0  0  0  0  0  0  0  0  0  0
   -5.1730    6.2370   18.6100 C   0  0  0  0  0  0  0  0  0  0  0  0
   -6.6590    5.8920   18.6140 C   0  0  0  0  0  0  0  0  0  0  0  0
   -7.2590    6.0880   17.2940 N   0  0  0  0  0  0  0  0  0  0  0  0
   -3.1420   10.2110   20.2030 C   0  0  0  0  0  0  0  0  0  0  0  0
   -6.4470   13.2620   24.4240 C   0  0  0  0  0  0  0  0  0  0  0  0
   -6.7680   14.7370   24.6540 C   0  0  0  0  0  0  0  0  0  0  0  0
  1  2  1  0
  2  3  1  0
  3  4  1  0
  4  5  1  0
  5  6  1  0
  6  7  2  0
  6  8  1  0
  8  9  1  1
  9 10  1  0
 10 11  2  0
 11 12  1  0
 12 13  2  0
 13 14  1  0
 14 15  1  0
 15 16  2  0
 15 17  1  0
 14 18  2  0
  8 19  1  0
 19 20  1  0
 20 21  2  0
 20 22  2  0
 20 23  1  0
 23 24  2  0
 24 25  1  0
 25 26  2  0
 26 27  1  0
 27 28  1  0
 28 29  1  0
 29 30  2  0
 29 31  1  0
 31 32  1  0
 32 33  1  0
 27 34  2  0
  5 35  1  0
 35 36  1  0
 36  2  1  0
 18 10  1  0
 34 23  1  0
M  END
$$$$
