QRUJOOQWHBDHME-JOCHJYFZSA-N
     RDKit          3D

 33 35  0  0  0  0  0  0  0  0999 V2000
   11.2450   10.5790  -14.4440 C   0  0  0  0  0  0  0  0  0  0  0  0
   11.2980   11.0860  -13.0110 C   0  0  0  0  0  0  0  0  0  0  0  0
   10.8310   10.0340  -12.0370 C   0  0  0  0  0  0  0  0  0  0  0  0
   10.6600    8.7090  -12.4490 C   0  0  0  0  0  0  0  0  0  0  0  0
   10.2690    7.7350  -11.5300 C   0  0  0  0  0  0  0  0  0  0  0  0
   10.0720    8.0660  -10.1860 C   0  0  0  0  0  0  0  0  0  0  0  0
    9.6690    7.0810   -9.3200 O   0  0  0  0  0  0  0  0  0  0  0  0
   10.7870    6.3330   -8.7820 C   0  0  2  0  0  0  0  0  0  0  0  0
   11.2720    5.3380   -9.8380 C   0  0  0  0  0  0  0  0  0  0  0  0
   10.2620    5.6040   -7.5310 C   0  0  0  0  0  0  0  0  0  0  0  0
    9.4390    4.3520   -7.8180 C   0  0  0  0  0  0  0  0  0  0  0  0
    8.6140    4.0210   -6.6990 O   0  0  0  0  0  0  0  0  0  0  0  0
    9.2300    3.3970   -5.6520 C   0  0  0  0  0  0  0  0  0  0  0  0
   10.1250    2.3400   -5.7700 C   0  0  0  0  0  0  0  0  0  0  0  0
   10.6820    1.7690   -4.6240 C   0  0  0  0  0  0  0  0  0  0  0  0
   10.3540    2.2360   -3.3390 C   0  0  0  0  0  0  0  0  0  0  0  0
   11.0090    1.5690   -2.1470 C   0  0  0  0  0  0  0  0  0  0  0  0
   12.2800    0.7910   -2.4830 C   0  0  0  0  0  0  0  0  0  0  0  0
   13.5560    1.5150   -2.1610 C   0  0  0  0  0  0  0  0  0  0  0  0
   14.4170    1.1180   -1.3920 O   0  0  0  0  0  0  0  0  0  0  0  0
   13.6640    2.7290   -2.7310 O   0  0  0  0  0  0  0  0  0  0  0  0
    9.4330    3.2960   -3.2160 C   0  0  0  0  0  0  0  0  0  0  0  0
    8.9960    3.8440   -1.8860 C   0  0  0  0  0  0  0  0  0  0  0  0
    8.8690    3.8480   -4.3820 C   0  0  0  0  0  0  0  0  0  0  0  0
   10.1940    9.3940   -9.7560 C   0  0  0  0  0  0  0  0  0  0  0  0
    9.8670    9.8200   -8.3410 C   0  0  0  0  0  0  0  0  0  0  0  0
   10.5600   11.0900   -7.8920 C   0  0  0  0  0  0  0  0  0  0  0  0
    9.8260   12.2620   -7.6640 C   0  0  0  0  0  0  0  0  0  0  0  0
   10.4630   13.4230   -7.2250 C   0  0  0  0  0  0  0  0  0  0  0  0
   11.8400   13.4260   -7.0120 C   0  0  0  0  0  0  0  0  0  0  0  0
   12.5830   12.2690   -7.2420 C   0  0  0  0  0  0  0  0  0  0  0  0
   11.9470   11.1070   -7.6800 C   0  0  0  0  0  0  0  0  0  0  0  0
   10.5840   10.3660  -10.6970 C   0  0  0  0  0  0  0  0  0  0  0  0
  1  2  1  0
  2  3  1  0
  3  4  2  0
  4  5  1  0
  5  6  2  0
  6  7  1  0
  7  8  1  0
  8  9  1  6
  8 10  1  0
 10 11  1  0
 11 12  1  0
 12 13  1  0
 13 14  2  0
 14 15  1  0
 15 16  2  0
 16 17  1  0
 17 18  1  0
 18 19  1  0
 19 20  2  0
 19 21  1  0
 16 22  1  0
 22 23  1  0
 22 24  2  0
  6 25  1  0
 25 26  1  0
 26 27  1  0
 27 28  2  0
 28 29  1  0
 29 30  2  0
 30 31  1  0
 31 32  2  0
 25 33  2  0
 33  3  1  0
 24 13  1  0
 32 27  1  0
M  END
$$$$
