JORCOHASOWOJOX-UHFFFAOYSA-N
     RDKit          3D

 32 36  0  0  0  0  0  0  0  0999 V2000
  -22.2540  -48.1760   23.9070 C   0  0  0  0  0  0  0  0  0  0  0  0
  -22.4310  -46.7290   23.5130 C   0  0  0  0  0  0  0  0  0  0  0  0
  -22.1260  -45.7360   24.4650 C   0  0  0  0  0  0  0  0  0  0  0  0
  -22.2990  -44.4140   24.0680 C   0  0  0  0  0  0  0  0  0  0  0  0
  -22.7410  -44.0730   22.7850 C   0  0  0  0  0  0  0  0  0  0  0  0
  -23.0520  -45.0340   21.8280 C   0  0  0  0  0  0  0  0  0  0  0  0
  -22.8920  -46.3810   22.2090 C   0  0  0  0  0  0  0  0  0  0  0  0
  -23.2150  -47.4550   21.1980 C   0  0  0  0  0  0  0  0  0  0  0  0
  -22.7620  -42.6840   22.7360 N   0  0  0  0  0  0  0  0  0  0  0  0
  -23.1280  -41.8500   21.5880 C   0  0  0  0  0  0  0  0  0  0  0  0
  -22.0030  -40.8910   21.2780 C   0  0  0  0  0  0  0  0  0  0  0  0
  -20.8670  -41.3790   20.6040 C   0  0  0  0  0  0  0  0  0  0  0  0
  -19.8220  -40.5260   20.2510 C   0  0  0  0  0  0  0  0  0  0  0  0
  -19.8970  -39.1740   20.5630 C   0  0  0  0  0  0  0  0  0  0  0  0
  -21.0090  -38.6740   21.2380 C   0  0  0  0  0  0  0  0  0  0  0  0
  -22.0670  -39.5190   21.6120 C   0  0  0  0  0  0  0  0  0  0  0  0
  -23.2450  -38.9170   22.3300 C   0  0  0  0  0  0  0  0  0  0  0  0
  -22.3980  -42.1900   23.9310 C   0  0  0  0  0  0  0  0  0  0  0  0
  -22.0990  -43.2130   24.7470 N   0  0  0  0  0  0  0  0  0  0  0  0
  -21.6290  -43.0760   26.1410 C   0  0  0  0  0  0  0  0  0  0  0  0
  -22.4810  -42.0420   26.8670 C   0  0  0  0  0  0  0  0  0  0  0  0
  -23.6550  -42.4690   27.5190 C   0  0  0  0  0  0  0  0  0  0  0  0
  -24.4890  -41.5560   28.1630 C   0  0  0  0  0  0  0  0  0  0  0  0
  -24.1680  -40.2000   28.1640 C   0  0  0  0  0  0  0  0  0  0  0  0
  -23.0150  -39.7590   27.5230 C   0  0  0  0  0  0  0  0  0  0  0  0
  -22.1760  -40.6710   26.8770 C   0  0  0  0  0  0  0  0  0  0  0  0
  -20.1230  -42.8570   26.1720 C   0  0  0  0  0  0  0  0  0  0  0  0
  -19.4970  -42.6220   27.4100 C   0  0  0  0  0  0  0  0  0  0  0  0
  -18.1200  -42.4030   27.4870 C   0  0  0  0  0  0  0  0  0  0  0  0
  -17.3480  -42.4090   26.3290 C   0  0  0  0  0  0  0  0  0  0  0  0
  -17.9500  -42.6300   25.0930 C   0  0  0  0  0  0  0  0  0  0  0  0
  -19.3270  -42.8490   25.0130 C   0  0  0  0  0  0  0  0  0  0  0  0
  1  2  1  0
  2  3  2  0
  3  4  1  0
  4  5  2  0
  5  6  1  0
  6  7  2  0
  7  8  1  0
  5  9  1  0
  9 10  1  0
 10 11  1  0
 11 12  2  0
 12 13  1  0
 13 14  2  0
 14 15  1  0
 15 16  2  0
 16 17  1  0
  9 18  2  0
 18 19  1  0
 19 20  1  0
 20 21  1  0
 21 22  2  0
 22 23  1  0
 23 24  2  0
 24 25  1  0
 25 26  2  0
 20 27  1  0
 27 28  2  0
 28 29  1  0
 29 30  2  0
 30 31  1  0
 31 32  2  0
  7  2  1  0
 16 11  1  0
 26 21  1  0
 32 27  1  0
 19  4  1  0
M  CHG  1   9   1
M  END
$$$$
