
 OpenBabel08272610363D

 31 34  0  0  0  0  0  0  0  0999 V2000
   13.6890   37.4850  125.4920 C   0  0  0  0  0  0  0  0  0  0  0  0
   13.0880   37.5530  124.2430 C   0  0  0  0  0  0  0  0  0  0  0  0
   13.7900   38.5180  123.4620 C   0  0  0  0  0  0  0  0  0  0  0  0
   14.7890   38.9800  124.2960 C   0  0  0  0  0  0  0  0  0  0  0  0
   14.7410   38.3790  125.5080 O   0  0  0  0  0  0  0  0  0  0  0  0
   13.2980   36.4860  126.9390 S   0  0  0  0  0  0  0  0  0  0  0  0
   12.5710   35.3650  126.3860 O   0  0  0  0  0  0  0  0  0  0  0  0
   12.7230   37.4430  127.8590 O   0  0  0  0  0  0  0  0  0  0  0  0
   14.7800   35.9710  127.4990 N   0  0  0  0  0  0  0  0  0  0  0  0
   16.8160   34.9740  127.3680 N   0  0  0  0  0  0  0  0  0  0  0  0
   15.6480   35.2300  126.7020 C   0  0  0  0  0  0  0  0  0  0  0  0
   15.3380   34.8330  125.5940 O   0  0  0  0  0  0  0  0  0  0  0  0
   16.7070   34.9580  128.3700 H   0  0  0  0  0  0  0  0  0  0  0  0
   15.1580   36.5430  128.2460 H   0  0  0  0  0  0  0  0  0  0  0  0
   17.9200   34.2710  126.8530 C   0  0  0  0  0  0  0  0  0  0  0  0
   18.5540   36.2730  125.2930 C   0  0  0  0  0  0  0  0  0  0  0  0
   19.9320   36.4970  124.6580 C   0  0  0  0  0  0  0  0  0  0  0  0
   18.7010   34.8950  125.8740 C   0  0  0  0  0  0  0  0  0  0  0  0
   20.4470   35.1170  124.2410 C   0  0  0  0  0  0  0  0  0  0  0  0
   19.7940   34.2420  125.2680 C   0  0  0  0  0  0  0  0  0  0  0  0
   18.2590   32.9590  127.1820 C   0  0  0  0  0  0  0  0  0  0  0  0
   20.1350   32.9430  125.5920 C   0  0  0  0  0  0  0  0  0  0  0  0
   19.3550   32.3160  126.5530 C   0  0  0  0  0  0  0  0  0  0  0  0
   17.5290   31.9480  128.0240 C   0  0  0  0  0  0  0  0  0  0  0  0
   19.4750   30.8840  126.9830 C   0  0  0  0  0  0  0  0  0  0  0  0
   18.6020   30.8720  128.2360 C   0  0  0  0  0  0  0  0  0  0  0  0
   13.5330   38.9640  122.0440 C   0  0  0  0  0  0  0  0  0  0  0  0
   14.4220   38.1940  121.0590 C   0  0  0  0  0  0  0  0  0  0  0  0
   13.7390   40.4710  121.8390 C   0  0  0  0  0  0  0  0  0  0  0  0
   12.1740   38.6750  121.6940 O   0  0  0  0  0  0  0  0  0  0  0  0
   11.6110   39.1490  122.3320 H   0  0  0  0  0  0  0  0  0  0  0  0
  1  5  1  0  0  0  0
  1  6  1  0  0  0  0
  2  1  2  0  0  0  0
  3  2  1  0  0  0  0
  3  4  2  0  0  0  0
  4  5  1  0  0  0  0
  6  9  1  0  0  0  0
  6  8  2  0  0  0  0
  7  6  2  0  0  0  0
  9 14  1  0  0  0  0
 10 13  1  0  0  0  0
 11 10  1  0  0  0  0
 11  9  1  0  0  0  0
 12 11  2  0  0  0  0
 15 21  1  0  0  0  0
 15 10  1  0  0  0  0
 16 18  1  0  0  0  0
 17 16  1  0  0  0  0
 18 15  2  0  0  0  0
 19 17  1  0  0  0  0
 19 20  1  0  0  0  0
 20 22  2  0  0  0  0
 20 18  1  0  0  0  0
 21 24  1  0  0  0  0
 22 23  1  0  0  0  0
 23 25  1  0  0  0  0
 23 21  2  0  0  0  0
 24 26  1  0  0  0  0
 25 26  1  0  0  0  0
 27  3  1  0  0  0  0
 28 27  1  0  0  0  0
 29 27  1  0  0  0  0
 30 27  1  0  0  0  0
 30 31  1  0  0  0  0
M  END
>  <minimizedAffinity>
-10.1611404

>  <CNNscore>
0.869377673

>  <CNNaffinity>
6.89524317

$$$$

 OpenBabel08272610363D

 31 34  0  0  0  0  0  0  0  0999 V2000
   14.5650   37.3630  125.5960 C   0  0  0  0  0  0  0  0  0  0  0  0
   15.3750   38.4900  125.5680 C   0  0  0  0  0  0  0  0  0  0  0  0
   15.5340   38.8930  124.2100 C   0  0  0  0  0  0  0  0  0  0  0  0
   14.7990   37.9750  123.4860 C   0  0  0  0  0  0  0  0  0  0  0  0
   14.2190   37.0560  124.2950 O   0  0  0  0  0  0  0  0  0  0  0  0
   13.9830   36.3590  126.9730 S   0  0  0  0  0  0  0  0  0  0  0  0
   13.1560   35.3600  126.3330 O   0  0  0  0  0  0  0  0  0  0  0  0
   13.4800   37.3390  127.9100 O   0  0  0  0  0  0  0  0  0  0  0  0
   15.3620   35.6430  127.5750 N   0  0  0  0  0  0  0  0  0  0  0  0
   17.2700   34.4160  127.4890 N   0  0  0  0  0  0  0  0  0  0  0  0
   16.1780   34.8410  126.7820 C   0  0  0  0  0  0  0  0  0  0  0  0
   15.8830   34.5370  125.6410 O   0  0  0  0  0  0  0  0  0  0  0  0
   17.1070   34.3660  128.4820 H   0  0  0  0  0  0  0  0  0  0  0  0
   15.7640   36.1300  128.3680 H   0  0  0  0  0  0  0  0  0  0  0  0
   18.3100   33.6100  126.9910 C   0  0  0  0  0  0  0  0  0  0  0  0
   18.9740   35.4310  125.2360 C   0  0  0  0  0  0  0  0  0  0  0  0
   20.3310   35.5220  124.5260 C   0  0  0  0  0  0  0  0  0  0  0  0
   19.0750   34.1020  125.9290 C   0  0  0  0  0  0  0  0  0  0  0  0
   20.7520   34.0840  124.2100 C   0  0  0  0  0  0  0  0  0  0  0  0
   20.1020   33.3390  125.3360 C   0  0  0  0  0  0  0  0  0  0  0  0
   18.5930   32.3130  127.4190 C   0  0  0  0  0  0  0  0  0  0  0  0
   20.3890   32.0540  125.7590 C   0  0  0  0  0  0  0  0  0  0  0  0
   19.6230   31.5570  126.8020 C   0  0  0  0  0  0  0  0  0  0  0  0
   17.8510   31.4200  128.3760 C   0  0  0  0  0  0  0  0  0  0  0  0
   19.6860   30.1630  127.3510 C   0  0  0  0  0  0  0  0  0  0  0  0
   18.8750   30.3070  128.6360 C   0  0  0  0  0  0  0  0  0  0  0  0
   16.3190   40.0510  123.6460 C   0  0  0  0  0  0  0  0  0  0  0  0
   17.0480   40.8120  124.7610 C   0  0  0  0  0  0  0  0  0  0  0  0
   15.4520   41.0340  122.8460 C   0  0  0  0  0  0  0  0  0  0  0  0
   17.3230   39.5550  122.7520 O   0  0  0  0  0  0  0  0  0  0  0  0
   16.8600   39.0560  122.0560 H   0  0  0  0  0  0  0  0  0  0  0  0
  1  6  1  0  0  0  0
  2  1  2  0  0  0  0
  3  2  1  0  0  0  0
  4  3  2  0  0  0  0
  4  5  1  0  0  0  0
  5  1  1  0  0  0  0
  6  9  1  0  0  0  0
  6  8  2  0  0  0  0
  7  6  2  0  0  0  0
  9 14  1  0  0  0  0
 10 13  1  0  0  0  0
 11 10  1  0  0  0  0
 11  9  1  0  0  0  0
 12 11  2  0  0  0  0
 15 21  1  0  0  0  0
 15 10  1  0  0  0  0
 16 18  1  0  0  0  0
 17 16  1  0  0  0  0
 18 15  2  0  0  0  0
 19 17  1  0  0  0  0
 19 20  1  0  0  0  0
 20 22  2  0  0  0  0
 20 18  1  0  0  0  0
 21 24  1  0  0  0  0
 22 23  1  0  0  0  0
 23 25  1  0  0  0  0
 23 21  2  0  0  0  0
 24 26  1  0  0  0  0
 25 26  1  0  0  0  0
 27  3  1  0  0  0  0
 27 28  1  0  0  0  0
 29 27  1  0  0  0  0
 30 27  1  0  0  0  0
 31 30  1  0  0  0  0
M  END
>  <minimizedAffinity>
-9.65471554

>  <CNNscore>
0.860975206

>  <CNNaffinity>
6.70219421

$$$$

 OpenBabel08272610363D

 31 34  0  0  0  0  0  0  0  0999 V2000
   14.7020   37.3470  125.8000 C   0  0  0  0  0  0  0  0  0  0  0  0
   15.6720   38.3390  125.7750 C   0  0  0  0  0  0  0  0  0  0  0  0
   15.7760   38.8290  124.4400 C   0  0  0  0  0  0  0  0  0  0  0  0
   14.8470   38.0960  123.7270 C   0  0  0  0  0  0  0  0  0  0  0  0
   14.2030   37.2070  124.5200 O   0  0  0  0  0  0  0  0  0  0  0  0
   14.0900   36.3260  127.1510 S   0  0  0  0  0  0  0  0  0  0  0  0
   13.1590   35.4310  126.5000 O   0  0  0  0  0  0  0  0  0  0  0  0
   13.7060   37.2950  128.1530 O   0  0  0  0  0  0  0  0  0  0  0  0
   15.4250   35.4700  127.6610 N   0  0  0  0  0  0  0  0  0  0  0  0
   17.2910   34.1980  127.4220 N   0  0  0  0  0  0  0  0  0  0  0  0
   16.2340   34.7730  126.7690 C   0  0  0  0  0  0  0  0  0  0  0  0
   15.9600   34.6640  125.5880 O   0  0  0  0  0  0  0  0  0  0  0  0
   17.0980   33.9980  128.3910 H   0  0  0  0  0  0  0  0  0  0  0  0
   15.8220   35.8100  128.5300 H   0  0  0  0  0  0  0  0  0  0  0  0
   18.3150   33.4410  126.8250 C   0  0  0  0  0  0  0  0  0  0  0  0
   17.7530   31.3720  128.3230 C   0  0  0  0  0  0  0  0  0  0  0  0
   18.1550   29.9240  128.0170 C   0  0  0  0  0  0  0  0  0  0  0  0
   18.5180   32.1340  127.2770 C   0  0  0  0  0  0  0  0  0  0  0  0
   19.5700   29.9810  127.4340 C   0  0  0  0  0  0  0  0  0  0  0  0
   19.5550   31.3240  126.7700 C   0  0  0  0  0  0  0  0  0  0  0  0
   19.2060   33.9170  125.8640 C   0  0  0  0  0  0  0  0  0  0  0  0
   20.4400   31.7900  125.8160 C   0  0  0  0  0  0  0  0  0  0  0  0
   20.2510   33.0910  125.3740 C   0  0  0  0  0  0  0  0  0  0  0  0
   19.3990   35.3060  125.3190 C   0  0  0  0  0  0  0  0  0  0  0  0
   21.1440   33.8360  124.4280 C   0  0  0  0  0  0  0  0  0  0  0  0
   20.2810   35.0490  124.0900 C   0  0  0  0  0  0  0  0  0  0  0  0
   16.6800   39.9020  123.8870 C   0  0  0  0  0  0  0  0  0  0  0  0
   17.6220   40.4370  124.9740 C   0  0  0  0  0  0  0  0  0  0  0  0
   15.9120   41.0750  123.2620 C   0  0  0  0  0  0  0  0  0  0  0  0
   17.5050   39.3440  122.8570 O   0  0  0  0  0  0  0  0  0  0  0  0
   16.9050   38.9880  122.1770 H   0  0  0  0  0  0  0  0  0  0  0  0
  1  6  1  0  0  0  0
  2  1  2  0  0  0  0
  3  2  1  0  0  0  0
  4  3  2  0  0  0  0
  4  5  1  0  0  0  0
  5  1  1  0  0  0  0
  6  9  1  0  0  0  0
  6  8  2  0  0  0  0
  7  6  2  0  0  0  0
  9 14  1  0  0  0  0
 10 13  1  0  0  0  0
 11 10  1  0  0  0  0
 11  9  1  0  0  0  0
 12 11  2  0  0  0  0
 15 18  1  0  0  0  0
 15 10  1  0  0  0  0
 17 16  1  0  0  0  0
 18 16  1  0  0  0  0
 19 17  1  0  0  0  0
 20 18  2  0  0  0  0
 20 19  1  0  0  0  0
 21 15  2  0  0  0  0
 22 20  1  0  0  0  0
 23 22  2  0  0  0  0
 23 21  1  0  0  0  0
 24 21  1  0  0  0  0
 25 23  1  0  0  0  0
 26 25  1  0  0  0  0
 26 24  1  0  0  0  0
 27  3  1  0  0  0  0
 27 28  1  0  0  0  0
 29 27  1  0  0  0  0
 30 27  1  0  0  0  0
 31 30  1  0  0  0  0
M  END
>  <minimizedAffinity>
-9.29623413

>  <CNNscore>
0.831578791

>  <CNNaffinity>
6.7516017

$$$$

 OpenBabel08272610363D

 31 34  0  0  0  0  0  0  0  0999 V2000
   13.4410   37.6270  125.5170 C   0  0  0  0  0  0  0  0  0  0  0  0
   13.0340   37.5830  124.1910 C   0  0  0  0  0  0  0  0  0  0  0  0
   13.5340   38.7430  123.5310 C   0  0  0  0  0  0  0  0  0  0  0  0
   14.2260   39.4290  124.5090 C   0  0  0  0  0  0  0  0  0  0  0  0
   14.1780   38.7810  125.6970 O   0  0  0  0  0  0  0  0  0  0  0  0
   13.1490   36.4910  126.8830 S   0  0  0  0  0  0  0  0  0  0  0  0
   12.3850   35.4240  126.2740 O   0  0  0  0  0  0  0  0  0  0  0  0
   12.6380   37.3510  127.9280 O   0  0  0  0  0  0  0  0  0  0  0  0
   14.6650   35.9320  127.2890 N   0  0  0  0  0  0  0  0  0  0  0  0
   16.8000   35.2600  126.9080 N   0  0  0  0  0  0  0  0  0  0  0  0
   15.6270   35.6520  126.3220 C   0  0  0  0  0  0  0  0  0  0  0  0
   15.3870   35.7020  125.1300 O   0  0  0  0  0  0  0  0  0  0  0  0
   16.6710   34.8370  127.8140 H   0  0  0  0  0  0  0  0  0  0  0  0
   14.9610   36.1920  128.2230 H   0  0  0  0  0  0  0  0  0  0  0  0
   17.9860   34.9230  126.2300 C   0  0  0  0  0  0  0  0  0  0  0  0
   17.7780   32.4220  126.9660 C   0  0  0  0  0  0  0  0  0  0  0  0
   18.4810   31.2400  126.2870 C   0  0  0  0  0  0  0  0  0  0  0  0
   18.4270   33.5980  126.2900 C   0  0  0  0  0  0  0  0  0  0  0  0
   19.8830   31.7270  125.9110 C   0  0  0  0  0  0  0  0  0  0  0  0
   19.6310   33.1860  125.6830 C   0  0  0  0  0  0  0  0  0  0  0  0
   18.8110   35.8280  125.5620 C   0  0  0  0  0  0  0  0  0  0  0  0
   20.4510   34.0780  125.0180 C   0  0  0  0  0  0  0  0  0  0  0  0
   20.0250   35.3970  124.9680 C   0  0  0  0  0  0  0  0  0  0  0  0
   18.7460   37.3290  125.4830 C   0  0  0  0  0  0  0  0  0  0  0  0
   20.7960   36.5480  124.3950 C   0  0  0  0  0  0  0  0  0  0  0  0
   19.7240   37.6330  124.3410 C   0  0  0  0  0  0  0  0  0  0  0  0
   13.3680   39.1650  122.0920 C   0  0  0  0  0  0  0  0  0  0  0  0
   14.2770   38.3400  121.1710 C   0  0  0  0  0  0  0  0  0  0  0  0
   13.6430   40.6580  121.8670 C   0  0  0  0  0  0  0  0  0  0  0  0
   12.0190   38.9190  121.6770 O   0  0  0  0  0  0  0  0  0  0  0  0
   11.4430   39.4280  122.2750 H   0  0  0  0  0  0  0  0  0  0  0  0
  1  5  1  0  0  0  0
  1  6  1  0  0  0  0
  2  1  2  0  0  0  0
  3  2  1  0  0  0  0
  3  4  2  0  0  0  0
  4  5  1  0  0  0  0
  6  9  1  0  0  0  0
  6  8  2  0  0  0  0
  7  6  2  0  0  0  0
  9 14  1  0  0  0  0
 10 13  1  0  0  0  0
 11 10  1  0  0  0  0
 11  9  1  0  0  0  0
 12 11  2  0  0  0  0
 15 18  1  0  0  0  0
 15 10  1  0  0  0  0
 17 16  1  0  0  0  0
 18 16  1  0  0  0  0
 19 17  1  0  0  0  0
 20 19  1  0  0  0  0
 20 18  2  0  0  0  0
 21 15  2  0  0  0  0
 22 20  1  0  0  0  0
 23 22  2  0  0  0  0
 23 21  1  0  0  0  0
 24 21  1  0  0  0  0
 25 23  1  0  0  0  0
 26 25  1  0  0  0  0
 26 24  1  0  0  0  0
 27  3  1  0  0  0  0
 28 27  1  0  0  0  0
 29 27  1  0  0  0  0
 30 27  1  0  0  0  0
 30 31  1  0  0  0  0
M  END
>  <minimizedAffinity>
-9.82113266

>  <CNNscore>
0.811855853

>  <CNNaffinity>
6.7052989

$$$$

 OpenBabel08272610363D

 31 34  0  0  0  0  0  0  0  0999 V2000
   13.9320   37.8590  125.8870 C   0  0  0  0  0  0  0  0  0  0  0  0
   15.1440   38.5250  125.7560 C   0  0  0  0  0  0  0  0  0  0  0  0
   15.0050   39.5050  124.7300 C   0  0  0  0  0  0  0  0  0  0  0  0
   13.7000   39.3740  124.2970 C   0  0  0  0  0  0  0  0  0  0  0  0
   13.0490   38.3960  124.9720 O   0  0  0  0  0  0  0  0  0  0  0  0
   13.4330   36.5180  126.9810 S   0  0  0  0  0  0  0  0  0  0  0  0
   12.8130   35.5670  126.0850 O   0  0  0  0  0  0  0  0  0  0  0  0
   12.7280   37.2010  128.0440 O   0  0  0  0  0  0  0  0  0  0  0  0
   14.8690   35.8940  127.5530 N   0  0  0  0  0  0  0  0  0  0  0  0
   16.8560   34.8030  127.4220 N   0  0  0  0  0  0  0  0  0  0  0  0
   15.7250   35.1590  126.7380 C   0  0  0  0  0  0  0  0  0  0  0  0
   15.4320   34.8460  125.5990 O   0  0  0  0  0  0  0  0  0  0  0  0
   16.7130   34.7330  128.4170 H   0  0  0  0  0  0  0  0  0  0  0  0
   15.2490   36.4000  128.3450 H   0  0  0  0  0  0  0  0  0  0  0  0
   17.9400   34.0770  126.8980 C   0  0  0  0  0  0  0  0  0  0  0  0
   18.5610   36.0360  125.2810 C   0  0  0  0  0  0  0  0  0  0  0  0
   19.9270   36.2300  124.6110 C   0  0  0  0  0  0  0  0  0  0  0  0
   18.7060   34.6690  125.8890 C   0  0  0  0  0  0  0  0  0  0  0  0
   20.4170   34.8350  124.2130 C   0  0  0  0  0  0  0  0  0  0  0  0
   19.7770   33.9910  125.2730 C   0  0  0  0  0  0  0  0  0  0  0  0
   18.2710   32.7680  127.2490 C   0  0  0  0  0  0  0  0  0  0  0  0
   20.1110   32.6950  125.6190 C   0  0  0  0  0  0  0  0  0  0  0  0
   19.3460   32.0980  126.6090 C   0  0  0  0  0  0  0  0  0  0  0  0
   17.5490   31.7840  128.1280 C   0  0  0  0  0  0  0  0  0  0  0  0
   19.4590   30.6750  127.0690 C   0  0  0  0  0  0  0  0  0  0  0  0
   18.6140   30.7000  128.3410 C   0  0  0  0  0  0  0  0  0  0  0  0
   16.0250   40.4830  124.2040 C   0  0  0  0  0  0  0  0  0  0  0  0
   15.4080   41.3970  123.1370 C   0  0  0  0  0  0  0  0  0  0  0  0
   17.2720   39.8000  123.6240 C   0  0  0  0  0  0  0  0  0  0  0  0
   16.4680   41.3280  125.2730 O   0  0  0  0  0  0  0  0  0  0  0  0
   16.8430   40.7450  125.9570 H   0  0  0  0  0  0  0  0  0  0  0  0
  1  6  1  0  0  0  0
  2  1  2  0  0  0  0
  3  2  1  0  0  0  0
  4  3  2  0  0  0  0
  4  5  1  0  0  0  0
  5  1  1  0  0  0  0
  6  9  1  0  0  0  0
  6  8  2  0  0  0  0
  7  6  2  0  0  0  0
  9 14  1  0  0  0  0
 10 13  1  0  0  0  0
 11 10  1  0  0  0  0
 11  9  1  0  0  0  0
 12 11  2  0  0  0  0
 15 21  1  0  0  0  0
 15 10  1  0  0  0  0
 16 18  1  0  0  0  0
 17 16  1  0  0  0  0
 18 15  2  0  0  0  0
 19 17  1  0  0  0  0
 19 20  1  0  0  0  0
 20 22  2  0  0  0  0
 20 18  1  0  0  0  0
 21 24  1  0  0  0  0
 22 23  1  0  0  0  0
 23 25  1  0  0  0  0
 23 21  2  0  0  0  0
 24 26  1  0  0  0  0
 25 26  1  0  0  0  0
 27  3  1  0  0  0  0
 27 30  1  0  0  0  0
 28 27  1  0  0  0  0
 29 27  1  0  0  0  0
 30 31  1  0  0  0  0
M  END
>  <minimizedAffinity>
-9.4070425

>  <CNNscore>
0.799015582

>  <CNNaffinity>
6.64935064

$$$$

 OpenBabel08272610363D

 31 34  0  0  0  0  0  0  0  0999 V2000
   14.2030   42.3730  122.1760 C   0  0  0  0  0  0  0  0  0  0  0  0
   14.4430   41.0070  122.1180 C   0  0  0  0  0  0  0  0  0  0  0  0
   13.1860   40.3340  122.1000 C   0  0  0  0  0  0  0  0  0  0  0  0
   12.2480   41.3460  122.1450 C   0  0  0  0  0  0  0  0  0  0  0  0
   12.8360   42.5650  122.1950 O   0  0  0  0  0  0  0  0  0  0  0  0
   15.3380   43.7700  122.2320 S   0  0  0  0  0  0  0  0  0  0  0  0
   14.9190   44.4950  123.4120 O   0  0  0  0  0  0  0  0  0  0  0  0
   15.2700   44.3090  120.8910 O   0  0  0  0  0  0  0  0  0  0  0  0
   16.8310   43.0810  122.4990 N   0  0  0  0  0  0  0  0  0  0  0  0
   18.3620   41.8000  123.5800 N   0  0  0  0  0  0  0  0  0  0  0  0
   17.0840   42.2890  123.6150 C   0  0  0  0  0  0  0  0  0  0  0  0
   16.2680   42.1360  124.5050 O   0  0  0  0  0  0  0  0  0  0  0  0
   18.9980   42.3850  123.0620 H   0  0  0  0  0  0  0  0  0  0  0  0
   17.3730   42.9370  121.6540 H   0  0  0  0  0  0  0  0  0  0  0  0
   18.9430   40.9470  124.5360 C   0  0  0  0  0  0  0  0  0  0  0  0
   17.6390   38.8860  123.5920 C   0  0  0  0  0  0  0  0  0  0  0  0
   18.0220   37.4180  123.8200 C   0  0  0  0  0  0  0  0  0  0  0  0
   18.5740   39.5990  124.5290 C   0  0  0  0  0  0  0  0  0  0  0  0
   18.5040   37.3160  125.2700 C   0  0  0  0  0  0  0  0  0  0  0  0
   19.0690   38.6870  125.4850 C   0  0  0  0  0  0  0  0  0  0  0  0
   19.8060   41.3550  125.5530 C   0  0  0  0  0  0  0  0  0  0  0  0
   19.9260   39.0860  126.4930 C   0  0  0  0  0  0  0  0  0  0  0  0
   20.2840   40.4250  126.5120 C   0  0  0  0  0  0  0  0  0  0  0  0
   20.2360   42.7360  125.9700 C   0  0  0  0  0  0  0  0  0  0  0  0
   21.1130   41.0980  127.5660 C   0  0  0  0  0  0  0  0  0  0  0  0
   21.4190   42.4370  126.9000 C   0  0  0  0  0  0  0  0  0  0  0  0
   12.9000   38.8540  122.0450 C   0  0  0  0  0  0  0  0  0  0  0  0
   12.5880   38.3040  123.4430 C   0  0  0  0  0  0  0  0  0  0  0  0
   14.0460   38.0410  121.4260 C   0  0  0  0  0  0  0  0  0  0  0  0
   11.7380   38.6240  121.2370 O   0  0  0  0  0  0  0  0  0  0  0  0
   11.9310   38.9910  120.3550 H   0  0  0  0  0  0  0  0  0  0  0  0
  1  5  1  0  0  0  0
  1  6  1  0  0  0  0
  2  1  2  0  0  0  0
  3  2  1  0  0  0  0
  3  4  2  0  0  0  0
  4  5  1  0  0  0  0
  6  9  1  0  0  0  0
  6  7  2  0  0  0  0
  8  6  2  0  0  0  0
  9 11  1  0  0  0  0
 10 11  1  0  0  0  0
 10 15  1  0  0  0  0
 11 12  2  0  0  0  0
 13 10  1  0  0  0  0
 14  9  1  0  0  0  0
 15 21  1  0  0  0  0
 16 17  1  0  0  0  0
 16 18  1  0  0  0  0
 17 19  1  0  0  0  0
 18 15  2  0  0  0  0
 18 20  1  0  0  0  0
 19 20  1  0  0  0  0
 20 22  2  0  0  0  0
 21 24  1  0  0  0  0
 21 23  2  0  0  0  0
 22 23  1  0  0  0  0
 23 25  1  0  0  0  0
 24 26  1  0  0  0  0
 26 25  1  0  0  0  0
 27  3  1  0  0  0  0
 27 28  1  0  0  0  0
 29 27  1  0  0  0  0
 30 27  1  0  0  0  0
 31 30  1  0  0  0  0
M  END
>  <minimizedAffinity>
-8.42619896

>  <CNNscore>
0.303705037

>  <CNNaffinity>
5.43202019

$$$$

 OpenBabel08272610363D

 31 34  0  0  0  0  0  0  0  0999 V2000
   14.4370   42.3830  122.3550 C   0  0  0  0  0  0  0  0  0  0  0  0
   14.6250   41.0070  122.3760 C   0  0  0  0  0  0  0  0  0  0  0  0
   13.3740   40.3820  122.1000 C   0  0  0  0  0  0  0  0  0  0  0  0
   12.4920   41.4290  121.9220 C   0  0  0  0  0  0  0  0  0  0  0  0
   13.1070   42.6260  122.0740 O   0  0  0  0  0  0  0  0  0  0  0  0
   15.5910   43.7380  122.6280 S   0  0  0  0  0  0  0  0  0  0  0  0
   15.0820   44.3770  123.8210 O   0  0  0  0  0  0  0  0  0  0  0  0
   15.6570   44.3850  121.3350 O   0  0  0  0  0  0  0  0  0  0  0  0
   17.0380   42.9870  122.9690 N   0  0  0  0  0  0  0  0  0  0  0  0
   18.4300   41.5590  124.0550 N   0  0  0  0  0  0  0  0  0  0  0  0
   17.1630   42.0730  124.0120 C   0  0  0  0  0  0  0  0  0  0  0  0
   16.2560   41.8460  124.7920 O   0  0  0  0  0  0  0  0  0  0  0  0
   19.1250   42.1800  123.6710 H   0  0  0  0  0  0  0  0  0  0  0  0
   17.6630   42.9200  122.1730 H   0  0  0  0  0  0  0  0  0  0  0  0
   18.8970   40.5940  124.9660 C   0  0  0  0  0  0  0  0  0  0  0  0
   19.8700   42.4470  126.5340 C   0  0  0  0  0  0  0  0  0  0  0  0
   20.2100   42.2610  128.0180 C   0  0  0  0  0  0  0  0  0  0  0  0
   19.5800   41.0370  126.1030 C   0  0  0  0  0  0  0  0  0  0  0  0
   20.8220   40.8640  128.1510 C   0  0  0  0  0  0  0  0  0  0  0  0
   20.1260   40.1360  127.0410 C   0  0  0  0  0  0  0  0  0  0  0  0
   18.8040   39.2140  124.7890 C   0  0  0  0  0  0  0  0  0  0  0  0
   20.0340   38.7680  126.8710 C   0  0  0  0  0  0  0  0  0  0  0  0
   19.3700   38.3240  125.7380 C   0  0  0  0  0  0  0  0  0  0  0  0
   18.3280   38.4140  123.6070 C   0  0  0  0  0  0  0  0  0  0  0  0
   19.2400   36.8960  125.2980 C   0  0  0  0  0  0  0  0  0  0  0  0
   18.1780   37.0110  124.2080 C   0  0  0  0  0  0  0  0  0  0  0  0
   13.0430   38.9130  122.0120 C   0  0  0  0  0  0  0  0  0  0  0  0
   12.8370   38.3140  123.4100 C   0  0  0  0  0  0  0  0  0  0  0  0
   14.1100   38.0980  121.2670 C   0  0  0  0  0  0  0  0  0  0  0  0
   11.8120   38.7440  121.2990 O   0  0  0  0  0  0  0  0  0  0  0  0
   11.9390   39.1410  120.4190 H   0  0  0  0  0  0  0  0  0  0  0  0
  1  2  2  0  0  0  0
  1  6  1  0  0  0  0
  3  2  1  0  0  0  0
  4  5  1  0  0  0  0
  4  3  2  0  0  0  0
  5  1  1  0  0  0  0
  6  9  1  0  0  0  0
  6  7  2  0  0  0  0
  8  6  2  0  0  0  0
  9 11  1  0  0  0  0
 10 15  1  0  0  0  0
 11 10  1  0  0  0  0
 11 12  2  0  0  0  0
 13 10  1  0  0  0  0
 14  9  1  0  0  0  0
 15 18  1  0  0  0  0
 16 17  1  0  0  0  0
 17 19  1  0  0  0  0
 18 16  1  0  0  0  0
 18 20  2  0  0  0  0
 20 19  1  0  0  0  0
 21 15  2  0  0  0  0
 21 23  1  0  0  0  0
 22 20  1  0  0  0  0
 23 22  2  0  0  0  0
 24 26  1  0  0  0  0
 24 21  1  0  0  0  0
 25 23  1  0  0  0  0
 26 25  1  0  0  0  0
 27  3  1  0  0  0  0
 27 28  1  0  0  0  0
 29 27  1  0  0  0  0
 30 27  1  0  0  0  0
 31 30  1  0  0  0  0
M  END
>  <minimizedAffinity>
-8.5098505

>  <CNNscore>
0.299944937

>  <CNNaffinity>
5.46982765

$$$$

 OpenBabel08272610363D

 31 34  0  0  0  0  0  0  0  0999 V2000
   19.3200   33.9580  125.7650 C   0  0  0  0  0  0  0  0  0  0  0  0
   19.1610   32.6190  126.0960 C   0  0  0  0  0  0  0  0  0  0  0  0
   19.0280   32.5220  127.5120 C   0  0  0  0  0  0  0  0  0  0  0  0
   19.1120   33.8250  127.9600 C   0  0  0  0  0  0  0  0  0  0  0  0
   19.2900   34.6910  126.9340 O   0  0  0  0  0  0  0  0  0  0  0  0
   19.5450   34.7620  124.1700 S   0  0  0  0  0  0  0  0  0  0  0  0
   18.2110   34.7780  123.6110 O   0  0  0  0  0  0  0  0  0  0  0  0
   20.6530   34.0380  123.5860 O   0  0  0  0  0  0  0  0  0  0  0  0
   20.0110   36.3150  124.5520 N   0  0  0  0  0  0  0  0  0  0  0  0
   19.7240   38.4540  125.2570 N   0  0  0  0  0  0  0  0  0  0  0  0
   19.0910   37.2810  124.9510 C   0  0  0  0  0  0  0  0  0  0  0  0
   17.8900   37.0770  124.9470 O   0  0  0  0  0  0  0  0  0  0  0  0
   20.5960   38.5760  124.7670 H   0  0  0  0  0  0  0  0  0  0  0  0
   20.9740   36.3900  124.8600 H   0  0  0  0  0  0  0  0  0  0  0  0
   19.1010   39.6300  125.7160 C   0  0  0  0  0  0  0  0  0  0  0  0
   17.8680   39.9500  123.4310 C   0  0  0  0  0  0  0  0  0  0  0  0
   16.6170   40.8110  123.2150 C   0  0  0  0  0  0  0  0  0  0  0  0
   18.2560   40.3150  124.8370 C   0  0  0  0  0  0  0  0  0  0  0  0
   16.8010   42.0660  124.0730 C   0  0  0  0  0  0  0  0  0  0  0  0
   17.6340   41.5280  125.1970 C   0  0  0  0  0  0  0  0  0  0  0  0
   19.3210   40.2190  126.9600 C   0  0  0  0  0  0  0  0  0  0  0  0
   17.8470   42.1150  126.4300 C   0  0  0  0  0  0  0  0  0  0  0  0
   18.6950   41.4460  127.3000 C   0  0  0  0  0  0  0  0  0  0  0  0
   20.3050   39.8680  128.0430 C   0  0  0  0  0  0  0  0  0  0  0  0
   19.1500   41.9440  128.6390 C   0  0  0  0  0  0  0  0  0  0  0  0
   19.7800   40.6850  129.2310 C   0  0  0  0  0  0  0  0  0  0  0  0
   18.8370   31.2950  128.3680 C   0  0  0  0  0  0  0  0  0  0  0  0
   20.1030   30.9910  129.1810 C   0  0  0  0  0  0  0  0  0  0  0  0
   18.4450   30.0500  127.5590 C   0  0  0  0  0  0  0  0  0  0  0  0
   17.7830   31.5310  129.3100 O   0  0  0  0  0  0  0  0  0  0  0  0
   16.9850   31.7420  128.7930 H   0  0  0  0  0  0  0  0  0  0  0  0
  1  2  2  0  0  0  0
  1  5  1  0  0  0  0
  2  3  1  0  0  0  0
  3  4  2  0  0  0  0
  3 27  1  0  0  0  0
  5  4  1  0  0  0  0
  6  9  1  0  0  0  0
  6  1  1  0  0  0  0
  7  6  2  0  0  0  0
  8  6  2  0  0  0  0
  9 14  1  0  0  0  0
  9 11  1  0  0  0  0
 10 15  1  0  0  0  0
 11 10  1  0  0  0  0
 12 11  2  0  0  0  0
 13 10  1  0  0  0  0
 15 21  1  0  0  0  0
 16 18  1  0  0  0  0
 17 16  1  0  0  0  0
 17 19  1  0  0  0  0
 18 20  1  0  0  0  0
 18 15  2  0  0  0  0
 19 20  1  0  0  0  0
 20 22  2  0  0  0  0
 21 23  2  0  0  0  0
 21 24  1  0  0  0  0
 22 23  1  0  0  0  0
 23 25  1  0  0  0  0
 24 26  1  0  0  0  0
 25 26  1  0  0  0  0
 27 28  1  0  0  0  0
 27 30  1  0  0  0  0
 29 27  1  0  0  0  0
 31 30  1  0  0  0  0
M  END
>  <minimizedAffinity>
-8.63143158

>  <CNNscore>
0.203876138

>  <CNNaffinity>
5.90978622

$$$$

 OpenBabel08272610363D

 31 34  0  0  0  0  0  0  0  0999 V2000
   19.1980   33.4460  125.9590 C   0  0  0  0  0  0  0  0  0  0  0  0
   19.7610   32.2340  126.3380 C   0  0  0  0  0  0  0  0  0  0  0  0
   19.1050   31.7880  127.5220 C   0  0  0  0  0  0  0  0  0  0  0  0
   18.1700   32.7670  127.7930 C   0  0  0  0  0  0  0  0  0  0  0  0
   18.2150   33.7620  126.8750 O   0  0  0  0  0  0  0  0  0  0  0  0
   19.5630   34.5380  124.5750 S   0  0  0  0  0  0  0  0  0  0  0  0
   18.2830   34.6870  123.9180 O   0  0  0  0  0  0  0  0  0  0  0  0
   20.7160   33.9190  123.9580 O   0  0  0  0  0  0  0  0  0  0  0  0
   19.9970   35.9790  125.2880 N   0  0  0  0  0  0  0  0  0  0  0  0
   19.7820   38.1730  125.8340 N   0  0  0  0  0  0  0  0  0  0  0  0
   19.2530   37.1410  125.1070 C   0  0  0  0  0  0  0  0  0  0  0  0
   18.3070   37.1970  124.3430 O   0  0  0  0  0  0  0  0  0  0  0  0
   20.7710   38.0740  126.0030 H   0  0  0  0  0  0  0  0  0  0  0  0
   20.5490   35.8690  126.1320 H   0  0  0  0  0  0  0  0  0  0  0  0
   19.2690   39.4810  125.9010 C   0  0  0  0  0  0  0  0  0  0  0  0
   20.3910   39.8750  128.2310 C   0  0  0  0  0  0  0  0  0  0  0  0
   20.6760   41.2470  128.8540 C   0  0  0  0  0  0  0  0  0  0  0  0
   19.5540   40.2440  127.0380 C   0  0  0  0  0  0  0  0  0  0  0  0
   19.4730   42.1340  128.5160 C   0  0  0  0  0  0  0  0  0  0  0  0
   19.0370   41.5440  127.2100 C   0  0  0  0  0  0  0  0  0  0  0  0
   18.4230   40.0590  124.9550 C   0  0  0  0  0  0  0  0  0  0  0  0
   18.2010   42.1220  126.2740 C   0  0  0  0  0  0  0  0  0  0  0  0
   17.9040   41.3640  125.1510 C   0  0  0  0  0  0  0  0  0  0  0  0
   17.7640   39.4580  123.7430 C   0  0  0  0  0  0  0  0  0  0  0  0
   16.9430   41.7440  124.0640 C   0  0  0  0  0  0  0  0  0  0  0  0
   17.2710   40.7040  122.9950 C   0  0  0  0  0  0  0  0  0  0  0  0
   19.3470   30.5370  128.3300 C   0  0  0  0  0  0  0  0  0  0  0  0
   19.5210   30.8710  129.8170 C   0  0  0  0  0  0  0  0  0  0  0  0
   20.5620   29.7330  127.8470 C   0  0  0  0  0  0  0  0  0  0  0  0
   18.2060   29.6760  128.2250 O   0  0  0  0  0  0  0  0  0  0  0  0
   18.0860   29.4810  127.2790 H   0  0  0  0  0  0  0  0  0  0  0  0
  1  2  2  0  0  0  0
  1  5  1  0  0  0  0
  2  3  1  0  0  0  0
  3  4  2  0  0  0  0
  3 27  1  0  0  0  0
  5  4  1  0  0  0  0
  6  9  1  0  0  0  0
  6  1  1  0  0  0  0
  7  6  2  0  0  0  0
  8  6  2  0  0  0  0
  9 14  1  0  0  0  0
 10 15  1  0  0  0  0
 10 13  1  0  0  0  0
 11  9  1  0  0  0  0
 11 10  1  0  0  0  0
 12 11  2  0  0  0  0
 15 18  1  0  0  0  0
 16 17  1  0  0  0  0
 18 20  2  0  0  0  0
 18 16  1  0  0  0  0
 19 17  1  0  0  0  0
 20 19  1  0  0  0  0
 21 23  1  0  0  0  0
 21 15  2  0  0  0  0
 22 20  1  0  0  0  0
 23 22  2  0  0  0  0
 24 21  1  0  0  0  0
 25 23  1  0  0  0  0
 26 24  1  0  0  0  0
 26 25  1  0  0  0  0
 27 28  1  0  0  0  0
 29 27  1  0  0  0  0
 30 27  1  0  0  0  0
 31 30  1  0  0  0  0
M  END
>  <minimizedAffinity>
-9.315485

>  <CNNscore>
0.203742772

>  <CNNaffinity>
5.85163832

$$$$
