
 OpenBabel08272613383D

 29 33  0  0  0  0  0  0  0  0999 V2000
   14.8560   35.7530  127.6880 N   0  0  0  0  0  0  0  0  0  0  0  0
   15.6810   35.0940  126.8710 C   0  0  0  0  0  0  0  0  0  0  0  0
   15.3770   34.8690  125.7030 O   0  0  0  0  0  0  0  0  0  0  0  0
   16.8640   34.6680  127.4520 N   0  0  0  0  0  0  0  0  0  0  0  0
   17.0460   35.1020  128.3570 H   0  0  0  0  0  0  0  0  0  0  0  0
   17.9260   33.9040  126.9240 C   0  0  0  0  0  0  0  0  0  0  0  0
   18.7720   34.5370  126.0020 C   0  0  0  0  0  0  0  0  0  0  0  0
   18.2640   32.5950  127.2590 C   0  0  0  0  0  0  0  0  0  0  0  0
   19.8850   33.8880  125.4240 C   0  0  0  0  0  0  0  0  0  0  0  0
   18.6820   35.9460  125.4830 C   0  0  0  0  0  0  0  0  0  0  0  0
   19.3850   31.9530  126.6650 C   0  0  0  0  0  0  0  0  0  0  0  0
   17.6310   31.6500  128.2380 C   0  0  0  0  0  0  0  0  0  0  0  0
   20.2050   32.5810  125.7410 C   0  0  0  0  0  0  0  0  0  0  0  0
   20.6360   34.8090  124.5130 C   0  0  0  0  0  0  0  0  0  0  0  0
   19.5870   35.8910  124.2460 C   0  0  0  0  0  0  0  0  0  0  0  0
   19.5260   30.5450  127.1580 C   0  0  0  0  0  0  0  0  0  0  0  0
   18.7420   30.6190  128.4670 C   0  0  0  0  0  0  0  0  0  0  0  0
   13.6080   36.5320  127.0990 S   0  0  0  0  0  0  0  0  0  0  0  0
   12.8990   37.3920  128.0460 O   0  0  0  0  0  0  0  0  0  0  0  0
   12.7630   35.7640  126.1860 O   0  0  0  0  0  0  0  0  0  0  0  0
   14.2560   37.6930  125.9850 C   0  0  0  0  0  0  0  0  0  0  0  0
   15.3920   38.5040  126.1980 C   0  0  0  0  0  0  0  0  0  0  0  0
   13.8250   37.9980  124.7110 C   0  0  0  0  0  0  0  0  0  0  0  0
   15.6820   39.2740  125.1380 N   0  0  0  0  0  0  0  0  0  0  0  0
   14.7230   38.9300  124.2600 N   0  0  0  0  0  0  0  0  0  0  0  0
   12.8260   37.5340  123.9480 O   0  0  0  0  0  0  0  0  0  0  0  0
   14.6710   39.5310  122.9450 C   0  0  0  0  0  0  0  0  0  0  0  0
   12.4870   38.3500  122.8230 C   0  0  0  0  0  0  0  0  0  0  0  0
   13.7300   38.7510  122.0340 C   0  0  0  0  0  0  0  0  0  0  0  0
  2  4  1  0  0  0  0
  2  1  1  0  0  0  0
  3  2  2  0  0  0  0
  4  5  1  0  0  0  0
  6  8  1  0  0  0  0
  6  4  1  0  0  0  0
  7  6  2  0  0  0  0
  8 12  1  0  0  0  0
  9 13  2  0  0  0  0
  9  7  1  0  0  0  0
 10  7  1  0  0  0  0
 11 16  1  0  0  0  0
 11  8  2  0  0  0  0
 12 17  1  0  0  0  0
 13 11  1  0  0  0  0
 14  9  1  0  0  0  0
 15 14  1  0  0  0  0
 15 10  1  0  0  0  0
 16 17  1  0  0  0  0
 18  1  1  0  0  0  0
 18 19  2  0  0  0  0
 20 18  2  0  0  0  0
 21 22  1  0  0  0  0
 21 18  1  0  0  0  0
 23 21  2  0  0  0  0
 24 22  2  0  0  0  0
 25 23  1  0  0  0  0
 25 24  1  0  0  0  0
 26 23  1  0  0  0  0
 27 25  1  0  0  0  0
 28 26  1  0  0  0  0
 29 28  1  0  0  0  0
 29 27  1  0  0  0  0
M  END
>  <minimizedAffinity>
-9.56660748

>  <CNNscore>
0.895339608

>  <CNNaffinity>
6.98887396

$$$$

 OpenBabel08272613383D

 29 33  0  0  0  0  0  0  0  0999 V2000
   15.7040   35.5960  127.2980 N   0  0  0  0  0  0  0  0  0  0  0  0
   16.5600   34.9050  126.5410 C   0  0  0  0  0  0  0  0  0  0  0  0
   16.4430   34.8640  125.3210 O   0  0  0  0  0  0  0  0  0  0  0  0
   17.5460   34.2280  127.2410 N   0  0  0  0  0  0  0  0  0  0  0  0
   17.6210   34.5230  128.2150 H   0  0  0  0  0  0  0  0  0  0  0  0
   18.5650   33.3630  126.7910 C   0  0  0  0  0  0  0  0  0  0  0  0
   18.6810   32.1230  127.4350 C   0  0  0  0  0  0  0  0  0  0  0  0
   19.4450   33.5820  125.7340 C   0  0  0  0  0  0  0  0  0  0  0  0
   19.6430   31.1600  127.0590 C   0  0  0  0  0  0  0  0  0  0  0  0
   17.8530   31.5930  128.5740 C   0  0  0  0  0  0  0  0  0  0  0  0
   20.4110   32.6060  125.3690 C   0  0  0  0  0  0  0  0  0  0  0  0
   19.5630   34.7500  124.7980 C   0  0  0  0  0  0  0  0  0  0  0  0
   20.5300   31.3900  126.0230 C   0  0  0  0  0  0  0  0  0  0  0  0
   19.5140   29.9150  127.8810 C   0  0  0  0  0  0  0  0  0  0  0  0
   18.7120   30.4260  129.0800 C   0  0  0  0  0  0  0  0  0  0  0  0
   21.2570   33.0820  124.2290 C   0  0  0  0  0  0  0  0  0  0  0  0
   20.3530   34.1540  123.6270 C   0  0  0  0  0  0  0  0  0  0  0  0
   14.2990   36.0340  126.7120 S   0  0  0  0  0  0  0  0  0  0  0  0
   13.2990   36.4300  127.7030 O   0  0  0  0  0  0  0  0  0  0  0  0
   13.8030   35.2260  125.6000 O   0  0  0  0  0  0  0  0  0  0  0  0
   14.5790   37.5290  125.8780 C   0  0  0  0  0  0  0  0  0  0  0  0
   15.5650   38.4880  126.2000 C   0  0  0  0  0  0  0  0  0  0  0  0
   13.9450   38.0230  124.7570 C   0  0  0  0  0  0  0  0  0  0  0  0
   15.5750   39.5250  125.3480 N   0  0  0  0  0  0  0  0  0  0  0  0
   14.5940   39.2000  124.4870 N   0  0  0  0  0  0  0  0  0  0  0  0
   12.9610   37.5500  123.9800 O   0  0  0  0  0  0  0  0  0  0  0  0
   14.2690   40.0630  123.3720 C   0  0  0  0  0  0  0  0  0  0  0  0
   12.3420   38.5140  123.1240 C   0  0  0  0  0  0  0  0  0  0  0  0
   13.3820   39.3350  122.3690 C   0  0  0  0  0  0  0  0  0  0  0  0
  2  4  1  0  0  0  0
  2  1  1  0  0  0  0
  3  2  2  0  0  0  0
  4  5  1  0  0  0  0
  6  4  1  0  0  0  0
  6  7  1  0  0  0  0
  7 10  1  0  0  0  0
  8  6  2  0  0  0  0
  9  7  2  0  0  0  0
  9 14  1  0  0  0  0
 10 15  1  0  0  0  0
 11  8  1  0  0  0  0
 11 13  2  0  0  0  0
 12  8  1  0  0  0  0
 13  9  1  0  0  0  0
 14 15  1  0  0  0  0
 16 11  1  0  0  0  0
 17 16  1  0  0  0  0
 17 12  1  0  0  0  0
 18  1  1  0  0  0  0
 18 19  2  0  0  0  0
 20 18  2  0  0  0  0
 21 22  1  0  0  0  0
 21 18  1  0  0  0  0
 23 21  2  0  0  0  0
 24 22  2  0  0  0  0
 25 23  1  0  0  0  0
 25 24  1  0  0  0  0
 26 23  1  0  0  0  0
 27 25  1  0  0  0  0
 28 26  1  0  0  0  0
 29 28  1  0  0  0  0
 29 27  1  0  0  0  0
M  END
>  <minimizedAffinity>
-9.5972271

>  <CNNscore>
0.891135216

>  <CNNaffinity>
7.00683451

$$$$

 OpenBabel08272613383D

 29 33  0  0  0  0  0  0  0  0999 V2000
   16.4150   35.5130  126.5940 N   0  0  0  0  0  0  0  0  0  0  0  0
   17.6040   34.9320  126.7740 C   0  0  0  0  0  0  0  0  0  0  0  0
   18.5890   35.5850  127.1050 O   0  0  0  0  0  0  0  0  0  0  0  0
   17.6340   33.5690  126.5250 N   0  0  0  0  0  0  0  0  0  0  0  0
   16.7040   33.1540  126.4540 H   0  0  0  0  0  0  0  0  0  0  0  0
   18.7050   32.6520  126.5490 C   0  0  0  0  0  0  0  0  0  0  0  0
   19.6360   32.7300  125.5030 C   0  0  0  0  0  0  0  0  0  0  0  0
   18.9740   31.7030  127.5320 C   0  0  0  0  0  0  0  0  0  0  0  0
   20.7660   31.8860  125.4290 C   0  0  0  0  0  0  0  0  0  0  0  0
   19.6310   33.6730  124.3300 C   0  0  0  0  0  0  0  0  0  0  0  0
   20.1130   30.8570  127.4420 C   0  0  0  0  0  0  0  0  0  0  0  0
   18.2400   31.3890  128.8020 C   0  0  0  0  0  0  0  0  0  0  0  0
   21.0180   30.9300  126.3950 C   0  0  0  0  0  0  0  0  0  0  0  0
   21.6110   32.2160  124.2380 C   0  0  0  0  0  0  0  0  0  0  0  0
   20.6220   32.9990  123.3730 C   0  0  0  0  0  0  0  0  0  0  0  0
   20.1700   29.9030  128.5950 C   0  0  0  0  0  0  0  0  0  0  0  0
   19.2970   30.6300  129.6140 C   0  0  0  0  0  0  0  0  0  0  0  0
   16.0060   36.0630  125.1650 S   0  0  0  0  0  0  0  0  0  0  0  0
   14.5830   35.9770  124.8410 O   0  0  0  0  0  0  0  0  0  0  0  0
   16.9250   35.7290  124.0790 O   0  0  0  0  0  0  0  0  0  0  0  0
   16.2490   37.7790  125.2310 C   0  0  0  0  0  0  0  0  0  0  0  0
   15.2350   38.7620  125.2280 C   0  0  0  0  0  0  0  0  0  0  0  0
   17.4330   38.4780  125.3410 C   0  0  0  0  0  0  0  0  0  0  0  0
   15.7230   40.0080  125.3350 N   0  0  0  0  0  0  0  0  0  0  0  0
   17.0490   39.7920  125.4130 N   0  0  0  0  0  0  0  0  0  0  0  0
   18.7140   38.0980  125.4270 O   0  0  0  0  0  0  0  0  0  0  0  0
   17.9730   40.8960  125.5530 C   0  0  0  0  0  0  0  0  0  0  0  0
   19.6750   39.1270  125.1710 C   0  0  0  0  0  0  0  0  0  0  0  0
   19.3540   40.3940  125.9560 C   0  0  0  0  0  0  0  0  0  0  0  0
  1  2  1  0  0  0  0
  2  3  2  0  0  0  0
  4  6  1  0  0  0  0
  4  2  1  0  0  0  0
  5  4  1  0  0  0  0
  6  8  1  0  0  0  0
  7  6  2  0  0  0  0
  8 12  1  0  0  0  0
  9  7  1  0  0  0  0
  9 13  2  0  0  0  0
 10  7  1  0  0  0  0
 11  8  2  0  0  0  0
 11 16  1  0  0  0  0
 12 17  1  0  0  0  0
 13 11  1  0  0  0  0
 14  9  1  0  0  0  0
 15 14  1  0  0  0  0
 15 10  1  0  0  0  0
 16 17  1  0  0  0  0
 18 21  1  0  0  0  0
 18  1  1  0  0  0  0
 19 18  2  0  0  0  0
 20 18  2  0  0  0  0
 21 23  2  0  0  0  0
 22 21  1  0  0  0  0
 22 24  2  0  0  0  0
 23 25  1  0  0  0  0
 23 26  1  0  0  0  0
 24 25  1  0  0  0  0
 25 27  1  0  0  0  0
 27 29  1  0  0  0  0
 28 26  1  0  0  0  0
 28 29  1  0  0  0  0
M  END
>  <minimizedAffinity>
-8.80918598

>  <CNNscore>
0.608374059

>  <CNNaffinity>
6.51793671

$$$$

 OpenBabel08272613383D

 29 33  0  0  0  0  0  0  0  0999 V2000
   16.2100   35.2580  126.9140 N   0  0  0  0  0  0  0  0  0  0  0  0
   17.4150   34.7220  127.1210 C   0  0  0  0  0  0  0  0  0  0  0  0
   18.2420   35.2700  127.8440 O   0  0  0  0  0  0  0  0  0  0  0  0
   17.6550   33.5400  126.4380 N   0  0  0  0  0  0  0  0  0  0  0  0
   16.8090   33.1240  126.0470 H   0  0  0  0  0  0  0  0  0  0  0  0
   18.8130   32.7380  126.3660 C   0  0  0  0  0  0  0  0  0  0  0  0
   18.9880   31.7760  127.3710 C   0  0  0  0  0  0  0  0  0  0  0  0
   19.7850   32.7580  125.3690 C   0  0  0  0  0  0  0  0  0  0  0  0
   20.0910   30.8950  127.3930 C   0  0  0  0  0  0  0  0  0  0  0  0
   18.0910   31.4940  128.5450 C   0  0  0  0  0  0  0  0  0  0  0  0
   20.8930   31.8690  125.4070 C   0  0  0  0  0  0  0  0  0  0  0  0
   19.8850   33.5990  124.1300 C   0  0  0  0  0  0  0  0  0  0  0  0
   21.0660   30.9330  126.4150 C   0  0  0  0  0  0  0  0  0  0  0  0
   20.0030   29.9460  128.5480 C   0  0  0  0  0  0  0  0  0  0  0  0
   19.0070   30.6690  129.4580 C   0  0  0  0  0  0  0  0  0  0  0  0
   21.8140   32.1010  124.2500 C   0  0  0  0  0  0  0  0  0  0  0  0
   20.8760   32.8030  123.2710 C   0  0  0  0  0  0  0  0  0  0  0  0
   15.8300   35.8330  125.4870 S   0  0  0  0  0  0  0  0  0  0  0  0
   14.3990   35.8860  125.1900 O   0  0  0  0  0  0  0  0  0  0  0  0
   16.6900   35.4000  124.3870 O   0  0  0  0  0  0  0  0  0  0  0  0
   16.2440   37.5170  125.5290 C   0  0  0  0  0  0  0  0  0  0  0  0
   15.3380   38.5920  125.6770 C   0  0  0  0  0  0  0  0  0  0  0  0
   17.4930   38.0990  125.4740 C   0  0  0  0  0  0  0  0  0  0  0  0
   15.9540   39.7830  125.7210 N   0  0  0  0  0  0  0  0  0  0  0  0
   17.2510   39.4420  125.6090 N   0  0  0  0  0  0  0  0  0  0  0  0
   18.7310   37.5990  125.3750 O   0  0  0  0  0  0  0  0  0  0  0  0
   18.2870   40.4510  125.6240 C   0  0  0  0  0  0  0  0  0  0  0  0
   19.7410   38.5370  124.9920 C   0  0  0  0  0  0  0  0  0  0  0  0
   19.6570   39.8130  125.8230 C   0  0  0  0  0  0  0  0  0  0  0  0
  1  2  1  0  0  0  0
  2  3  2  0  0  0  0
  4  2  1  0  0  0  0
  5  4  1  0  0  0  0
  6  4  1  0  0  0  0
  6  7  1  0  0  0  0
  7  9  2  0  0  0  0
  7 10  1  0  0  0  0
  8 11  1  0  0  0  0
  8  6  2  0  0  0  0
  9 14  1  0  0  0  0
 10 15  1  0  0  0  0
 11 13  2  0  0  0  0
 12  8  1  0  0  0  0
 13  9  1  0  0  0  0
 14 15  1  0  0  0  0
 16 11  1  0  0  0  0
 17 12  1  0  0  0  0
 17 16  1  0  0  0  0
 18 21  1  0  0  0  0
 18  1  1  0  0  0  0
 19 18  2  0  0  0  0
 20 18  2  0  0  0  0
 21 22  1  0  0  0  0
 22 24  2  0  0  0  0
 23 21  2  0  0  0  0
 23 25  1  0  0  0  0
 25 27  1  0  0  0  0
 25 24  1  0  0  0  0
 26 23  1  0  0  0  0
 27 29  1  0  0  0  0
 28 26  1  0  0  0  0
 28 29  1  0  0  0  0
M  END
>  <minimizedAffinity>
-8.56906223

>  <CNNscore>
0.515716016

>  <CNNaffinity>
6.37115145

$$$$

 OpenBabel08272613383D

 29 33  0  0  0  0  0  0  0  0999 V2000
   14.4980   35.2370  125.7010 N   0  0  0  0  0  0  0  0  0  0  0  0
   15.8080   35.3180  125.9490 C   0  0  0  0  0  0  0  0  0  0  0  0
   16.2730   34.9900  127.0350 O   0  0  0  0  0  0  0  0  0  0  0  0
   16.5700   35.8250  124.9080 N   0  0  0  0  0  0  0  0  0  0  0  0
   16.0660   35.8610  124.0220 H   0  0  0  0  0  0  0  0  0  0  0  0
   17.9490   36.1080  124.8310 C   0  0  0  0  0  0  0  0  0  0  0  0
   18.3430   37.4340  125.0570 C   0  0  0  0  0  0  0  0  0  0  0  0
   18.9800   35.1990  124.6040 C   0  0  0  0  0  0  0  0  0  0  0  0
   19.6960   37.8380  125.0340 C   0  0  0  0  0  0  0  0  0  0  0  0
   17.4670   38.6180  125.3640 C   0  0  0  0  0  0  0  0  0  0  0  0
   20.3370   35.6200  124.5790 C   0  0  0  0  0  0  0  0  0  0  0  0
   18.9320   33.7140  124.3880 C   0  0  0  0  0  0  0  0  0  0  0  0
   20.7150   36.9370  124.7870 C   0  0  0  0  0  0  0  0  0  0  0  0
   19.8320   39.2940  125.3520 C   0  0  0  0  0  0  0  0  0  0  0  0
   18.4110   39.7960  125.0880 C   0  0  0  0  0  0  0  0  0  0  0  0
   21.2540   34.4730  124.2870 C   0  0  0  0  0  0  0  0  0  0  0  0
   20.3750   33.2910  124.6900 C   0  0  0  0  0  0  0  0  0  0  0  0
   13.4850   36.1960  126.4540 S   0  0  0  0  0  0  0  0  0  0  0  0
   13.9640   36.7460  127.7220 O   0  0  0  0  0  0  0  0  0  0  0  0
   12.0870   35.7700  126.4360 O   0  0  0  0  0  0  0  0  0  0  0  0
   13.3660   37.6220  125.4750 C   0  0  0  0  0  0  0  0  0  0  0  0
   12.6970   38.8160  125.8240 C   0  0  0  0  0  0  0  0  0  0  0  0
   13.9190   37.8640  124.2350 C   0  0  0  0  0  0  0  0  0  0  0  0
   12.8140   39.7670  124.8830 N   0  0  0  0  0  0  0  0  0  0  0  0
   13.5670   39.1580  123.9500 N   0  0  0  0  0  0  0  0  0  0  0  0
   14.6870   37.1320  123.4170 O   0  0  0  0  0  0  0  0  0  0  0  0
   13.9500   39.8510  122.7390 C   0  0  0  0  0  0  0  0  0  0  0  0
   14.7620   37.6000  122.0670 C   0  0  0  0  0  0  0  0  0  0  0  0
   15.0580   39.0950  122.0140 C   0  0  0  0  0  0  0  0  0  0  0  0
  1  2  1  0  0  0  0
  1 18  1  0  0  0  0
  2  3  2  0  0  0  0
  4  2  1  0  0  0  0
  5  4  1  0  0  0  0
  6  4  1  0  0  0  0
  6  7  1  0  0  0  0
  7 10  1  0  0  0  0
  8  6  2  0  0  0  0
  9  7  2  0  0  0  0
  9 14  1  0  0  0  0
 11  8  1  0  0  0  0
 11 13  2  0  0  0  0
 12  8  1  0  0  0  0
 12 17  1  0  0  0  0
 13  9  1  0  0  0  0
 15 14  1  0  0  0  0
 15 10  1  0  0  0  0
 16 11  1  0  0  0  0
 16 17  1  0  0  0  0
 18 19  2  0  0  0  0
 20 18  2  0  0  0  0
 21 22  1  0  0  0  0
 21 18  1  0  0  0  0
 23 21  2  0  0  0  0
 24 22  2  0  0  0  0
 25 23  1  0  0  0  0
 25 24  1  0  0  0  0
 26 23  1  0  0  0  0
 27 25  1  0  0  0  0
 28 26  1  0  0  0  0
 29 28  1  0  0  0  0
 29 27  1  0  0  0  0
M  END
>  <minimizedAffinity>
-8.41166782

>  <CNNscore>
0.439706564

>  <CNNaffinity>
5.76496315

$$$$

 OpenBabel08272613383D

 29 33  0  0  0  0  0  0  0  0999 V2000
   16.6600   35.6800  126.3600 N   0  0  0  0  0  0  0  0  0  0  0  0
   17.8170   35.0490  126.5750 C   0  0  0  0  0  0  0  0  0  0  0  0
   18.8300   35.6640  126.8900 O   0  0  0  0  0  0  0  0  0  0  0  0
   17.7800   33.6770  126.3820 N   0  0  0  0  0  0  0  0  0  0  0  0
   16.8310   33.3060  126.3190 H   0  0  0  0  0  0  0  0  0  0  0  0
   18.8030   32.7100  126.4550 C   0  0  0  0  0  0  0  0  0  0  0  0
   19.7670   32.7210  125.4360 C   0  0  0  0  0  0  0  0  0  0  0  0
   18.9970   31.7680  127.4630 C   0  0  0  0  0  0  0  0  0  0  0  0
   20.8560   31.8220  125.4110 C   0  0  0  0  0  0  0  0  0  0  0  0
   19.8420   33.6400  124.2470 C   0  0  0  0  0  0  0  0  0  0  0  0
   20.0950   30.8660  127.4220 C   0  0  0  0  0  0  0  0  0  0  0  0
   18.2120   31.5150  128.7170 C   0  0  0  0  0  0  0  0  0  0  0  0
   21.0320   30.8740  126.4020 C   0  0  0  0  0  0  0  0  0  0  0  0
   21.7500   32.0860  124.2400 C   0  0  0  0  0  0  0  0  0  0  0  0
   20.8260   32.9000  123.3310 C   0  0  0  0  0  0  0  0  0  0  0  0
   20.0720   29.9330  128.5940 C   0  0  0  0  0  0  0  0  0  0  0  0
   19.2060   30.7220  129.5730 C   0  0  0  0  0  0  0  0  0  0  0  0
   16.2950   36.1980  124.9070 S   0  0  0  0  0  0  0  0  0  0  0  0
   14.8680   36.2200  124.5860 O   0  0  0  0  0  0  0  0  0  0  0  0
   17.1770   35.7370  123.8370 O   0  0  0  0  0  0  0  0  0  0  0  0
   16.6850   37.8880  124.8940 C   0  0  0  0  0  0  0  0  0  0  0  0
   17.9480   38.4510  125.1840 C   0  0  0  0  0  0  0  0  0  0  0  0
   15.8770   38.9560  124.5670 C   0  0  0  0  0  0  0  0  0  0  0  0
   17.9610   39.7860  125.0490 N   0  0  0  0  0  0  0  0  0  0  0  0
   16.6990   40.0490  124.6630 N   0  0  0  0  0  0  0  0  0  0  0  0
   14.6000   39.0500  124.1740 O   0  0  0  0  0  0  0  0  0  0  0  0
   16.2750   41.4050  124.3890 C   0  0  0  0  0  0  0  0  0  0  0  0
   14.0250   40.3560  124.2720 C   0  0  0  0  0  0  0  0  0  0  0  0
   14.9380   41.4130  123.6580 C   0  0  0  0  0  0  0  0  0  0  0  0
  1  2  1  0  0  0  0
  2  3  2  0  0  0  0
  4  6  1  0  0  0  0
  4  2  1  0  0  0  0
  5  4  1  0  0  0  0
  6  8  1  0  0  0  0
  7  6  2  0  0  0  0
  8 12  1  0  0  0  0
  9  7  1  0  0  0  0
  9 13  2  0  0  0  0
 10  7  1  0  0  0  0
 11  8  2  0  0  0  0
 11 16  1  0  0  0  0
 12 17  1  0  0  0  0
 13 11  1  0  0  0  0
 14  9  1  0  0  0  0
 15 14  1  0  0  0  0
 15 10  1  0  0  0  0
 16 17  1  0  0  0  0
 18  1  1  0  0  0  0
 19 18  2  0  0  0  0
 20 18  2  0  0  0  0
 21 18  1  0  0  0  0
 21 22  1  0  0  0  0
 23 25  1  0  0  0  0
 23 21  2  0  0  0  0
 24 22  2  0  0  0  0
 25 24  1  0  0  0  0
 26 28  1  0  0  0  0
 26 23  1  0  0  0  0
 27 25  1  0  0  0  0
 29 28  1  0  0  0  0
 29 27  1  0  0  0  0
M  END
>  <minimizedAffinity>
-8.63843441

>  <CNNscore>
0.370065212

>  <CNNaffinity>
6.47170496

$$$$

 OpenBabel08272613383D

 29 33  0  0  0  0  0  0  0  0999 V2000
   18.2530   36.2620  124.2850 N   0  0  0  0  0  0  0  0  0  0  0  0
   17.8820   37.4030  124.8710 C   0  0  0  0  0  0  0  0  0  0  0  0
   16.7680   37.5310  125.3710 O   0  0  0  0  0  0  0  0  0  0  0  0
   18.8290   38.4140  124.8360 N   0  0  0  0  0  0  0  0  0  0  0  0
   19.7560   38.0860  124.5660 H   0  0  0  0  0  0  0  0  0  0  0  0
   18.7680   39.7480  125.2900 C   0  0  0  0  0  0  0  0  0  0  0  0
   18.0070   40.6480  124.5290 C   0  0  0  0  0  0  0  0  0  0  0  0
   19.3410   40.2670  126.4480 C   0  0  0  0  0  0  0  0  0  0  0  0
   17.8460   42.0030  124.8940 C   0  0  0  0  0  0  0  0  0  0  0  0
   17.2450   40.3710  123.2610 C   0  0  0  0  0  0  0  0  0  0  0  0
   19.1750   41.6340  126.8000 C   0  0  0  0  0  0  0  0  0  0  0  0
   20.1550   39.5910  127.5130 C   0  0  0  0  0  0  0  0  0  0  0  0
   18.4350   42.5190  126.0330 C   0  0  0  0  0  0  0  0  0  0  0  0
   16.9510   42.7200  123.9320 C   0  0  0  0  0  0  0  0  0  0  0  0
   16.9970   41.7850  122.7210 C   0  0  0  0  0  0  0  0  0  0  0  0
   19.9070   41.9600  128.0650 C   0  0  0  0  0  0  0  0  0  0  0  0
   20.0410   40.5710  128.6860 C   0  0  0  0  0  0  0  0  0  0  0  0
   19.4450   35.4090  124.8870 S   0  0  0  0  0  0  0  0  0  0  0  0
   20.4190   36.1600  125.6780 O   0  0  0  0  0  0  0  0  0  0  0  0
   20.0010   34.3930  123.9960 O   0  0  0  0  0  0  0  0  0  0  0  0
   18.7330   34.3810  126.0880 C   0  0  0  0  0  0  0  0  0  0  0  0
   17.6000   34.6850  126.8760 C   0  0  0  0  0  0  0  0  0  0  0  0
   19.0990   33.1030  126.4550 C   0  0  0  0  0  0  0  0  0  0  0  0
   17.2510   33.6760  127.6880 N   0  0  0  0  0  0  0  0  0  0  0  0
   18.1700   32.7380  127.3950 N   0  0  0  0  0  0  0  0  0  0  0  0
   20.0640   32.2730  126.0380 O   0  0  0  0  0  0  0  0  0  0  0  0
   18.1530   31.4510  128.0550 C   0  0  0  0  0  0  0  0  0  0  0  0
   20.3400   31.1710  126.9080 C   0  0  0  0  0  0  0  0  0  0  0  0
   19.0570   30.4610  127.3280 C   0  0  0  0  0  0  0  0  0  0  0  0
  1  2  1  0  0  0  0
  1 18  1  0  0  0  0
  2  3  2  0  0  0  0
  4  2  1  0  0  0  0
  4  6  1  0  0  0  0
  5  4  1  0  0  0  0
  6  8  1  0  0  0  0
  7  9  1  0  0  0  0
  7  6  2  0  0  0  0
  8 11  2  0  0  0  0
  8 12  1  0  0  0  0
  9 13  2  0  0  0  0
 10  7  1  0  0  0  0
 11 16  1  0  0  0  0
 12 17  1  0  0  0  0
 13 11  1  0  0  0  0
 14  9  1  0  0  0  0
 15 10  1  0  0  0  0
 15 14  1  0  0  0  0
 16 17  1  0  0  0  0
 18 19  2  0  0  0  0
 18 21  1  0  0  0  0
 20 18  2  0  0  0  0
 21 23  2  0  0  0  0
 21 22  1  0  0  0  0
 22 24  2  0  0  0  0
 23 25  1  0  0  0  0
 25 24  1  0  0  0  0
 25 27  1  0  0  0  0
 26 23  1  0  0  0  0
 26 28  1  0  0  0  0
 28 29  1  0  0  0  0
 29 27  1  0  0  0  0
M  END
>  <minimizedAffinity>
-8.53937054

>  <CNNscore>
0.27264899

>  <CNNaffinity>
6.00138283

$$$$

 OpenBabel08272613383D

 29 33  0  0  0  0  0  0  0  0999 V2000
   16.8950   35.7320  126.0130 N   0  0  0  0  0  0  0  0  0  0  0  0
   18.0000   35.0620  126.3490 C   0  0  0  0  0  0  0  0  0  0  0  0
   18.9910   35.6420  126.7820 O   0  0  0  0  0  0  0  0  0  0  0  0
   17.9420   33.6940  126.1390 N   0  0  0  0  0  0  0  0  0  0  0  0
   16.9950   33.3550  125.9660 H   0  0  0  0  0  0  0  0  0  0  0  0
   18.9200   32.6930  126.3150 C   0  0  0  0  0  0  0  0  0  0  0  0
   19.9500   32.6320  125.3660 C   0  0  0  0  0  0  0  0  0  0  0  0
   19.0070   31.7820  127.3650 C   0  0  0  0  0  0  0  0  0  0  0  0
   21.0020   31.6940  125.4470 C   0  0  0  0  0  0  0  0  0  0  0  0
   20.1420   33.5040  124.1550 C   0  0  0  0  0  0  0  0  0  0  0  0
   20.0690   30.8390  127.4310 C   0  0  0  0  0  0  0  0  0  0  0  0
   18.1290   31.6040  128.5690 C   0  0  0  0  0  0  0  0  0  0  0  0
   21.0740   30.7760  126.4790 C   0  0  0  0  0  0  0  0  0  0  0  0
   21.9830   31.8830  124.3330 C   0  0  0  0  0  0  0  0  0  0  0  0
   21.1560   32.6960  123.3350 C   0  0  0  0  0  0  0  0  0  0  0  0
   19.9300   29.9510  128.6290 C   0  0  0  0  0  0  0  0  0  0  0  0
   19.0310   30.8060  129.5190 C   0  0  0  0  0  0  0  0  0  0  0  0
   16.8560   36.5800  124.6740 S   0  0  0  0  0  0  0  0  0  0  0  0
   17.0830   35.8240  123.4430 O   0  0  0  0  0  0  0  0  0  0  0  0
   17.5020   37.8900  124.7420 O   0  0  0  0  0  0  0  0  0  0  0  0
   15.2070   37.0820  124.4800 C   0  0  0  0  0  0  0  0  0  0  0  0
   14.1770   36.9390  125.4360 C   0  0  0  0  0  0  0  0  0  0  0  0
   14.6250   37.7320  123.4120 C   0  0  0  0  0  0  0  0  0  0  0  0
   13.0130   37.4640  125.0220 N   0  0  0  0  0  0  0  0  0  0  0  0
   13.3280   37.9420  123.8050 N   0  0  0  0  0  0  0  0  0  0  0  0
   15.1000   38.1690  122.2380 O   0  0  0  0  0  0  0  0  0  0  0  0
   12.3380   38.6170  122.9940 C   0  0  0  0  0  0  0  0  0  0  0  0
   14.1080   38.4770  121.2540 C   0  0  0  0  0  0  0  0  0  0  0  0
   13.0020   39.3530  121.8360 C   0  0  0  0  0  0  0  0  0  0  0  0
  1  2  1  0  0  0  0
  2  3  2  0  0  0  0
  4  6  1  0  0  0  0
  4  2  1  0  0  0  0
  5  4  1  0  0  0  0
  6  8  1  0  0  0  0
  7  9  1  0  0  0  0
  7  6  2  0  0  0  0
  8 11  2  0  0  0  0
  8 12  1  0  0  0  0
  9 13  2  0  0  0  0
 10  7  1  0  0  0  0
 11 16  1  0  0  0  0
 12 17  1  0  0  0  0
 13 11  1  0  0  0  0
 14  9  1  0  0  0  0
 15 10  1  0  0  0  0
 15 14  1  0  0  0  0
 16 17  1  0  0  0  0
 18 20  2  0  0  0  0
 18  1  1  0  0  0  0
 19 18  2  0  0  0  0
 21 18  1  0  0  0  0
 21 22  1  0  0  0  0
 23 25  1  0  0  0  0
 23 21  2  0  0  0  0
 24 22  2  0  0  0  0
 25 24  1  0  0  0  0
 26 23  1  0  0  0  0
 27 25  1  0  0  0  0
 28 29  1  0  0  0  0
 28 26  1  0  0  0  0
 29 27  1  0  0  0  0
M  END
>  <minimizedAffinity>
-9.08504581

>  <CNNscore>
0.228518039

>  <CNNaffinity>
6.1422143

$$$$

 OpenBabel08272613383D

 29 33  0  0  0  0  0  0  0  0999 V2000
   20.0560   36.1390  125.2730 N   0  0  0  0  0  0  0  0  0  0  0  0
   19.5950   37.2920  124.7810 C   0  0  0  0  0  0  0  0  0  0  0  0
   20.2970   38.0100  124.0760 O   0  0  0  0  0  0  0  0  0  0  0  0
   18.3000   37.6110  125.1550 N   0  0  0  0  0  0  0  0  0  0  0  0
   17.7970   36.8270  125.5700 H   0  0  0  0  0  0  0  0  0  0  0  0
   17.5190   38.7540  124.8830 C   0  0  0  0  0  0  0  0  0  0  0  0
   16.5120   38.6250  123.9160 C   0  0  0  0  0  0  0  0  0  0  0  0
   17.6020   39.9950  125.5120 C   0  0  0  0  0  0  0  0  0  0  0  0
   15.6470   39.6880  123.5750 C   0  0  0  0  0  0  0  0  0  0  0  0
   16.1610   37.4070  123.1060 C   0  0  0  0  0  0  0  0  0  0  0  0
   16.7280   41.0570  125.1550 C   0  0  0  0  0  0  0  0  0  0  0  0
   18.5030   40.4630  126.6170 C   0  0  0  0  0  0  0  0  0  0  0  0
   15.7470   40.9250  124.1850 C   0  0  0  0  0  0  0  0  0  0  0  0
   14.6420   39.2620  122.5510 C   0  0  0  0  0  0  0  0  0  0  0  0
   15.3050   38.0050  121.9810 C   0  0  0  0  0  0  0  0  0  0  0  0
   17.0300   42.2940  125.9430 C   0  0  0  0  0  0  0  0  0  0  0  0
   17.7640   41.6990  127.1420 C   0  0  0  0  0  0  0  0  0  0  0  0
   19.5240   34.7600  124.7010 S   0  0  0  0  0  0  0  0  0  0  0  0
   20.5550   33.8200  124.2640 O   0  0  0  0  0  0  0  0  0  0  0  0
   18.3440   34.8510  123.8440 O   0  0  0  0  0  0  0  0  0  0  0  0
   18.8330   33.9220  126.0540 C   0  0  0  0  0  0  0  0  0  0  0  0
   17.7870   34.3930  126.8770 C   0  0  0  0  0  0  0  0  0  0  0  0
   19.1350   32.6640  126.5330 C   0  0  0  0  0  0  0  0  0  0  0  0
   17.4300   33.5050  127.8170 N   0  0  0  0  0  0  0  0  0  0  0  0
   18.2570   32.4730  127.5680 N   0  0  0  0  0  0  0  0  0  0  0  0
   20.0060   31.7230  126.1460 O   0  0  0  0  0  0  0  0  0  0  0  0
   18.1990   31.2670  128.3650 C   0  0  0  0  0  0  0  0  0  0  0  0
   20.2690   30.7000  127.1110 C   0  0  0  0  0  0  0  0  0  0  0  0
   18.9740   30.1400  127.6920 C   0  0  0  0  0  0  0  0  0  0  0  0
  2  4  1  0  0  0  0
  2  1  1  0  0  0  0
  3  2  2  0  0  0  0
  4  5  1  0  0  0  0
  6  4  1  0  0  0  0
  6  8  1  0  0  0  0
  7  6  2  0  0  0  0
  8 12  1  0  0  0  0
  9  7  1  0  0  0  0
  9 13  2  0  0  0  0
 10  7  1  0  0  0  0
 11  8  2  0  0  0  0
 11 16  1  0  0  0  0
 12 17  1  0  0  0  0
 13 11  1  0  0  0  0
 14  9  1  0  0  0  0
 15 14  1  0  0  0  0
 15 10  1  0  0  0  0
 16 17  1  0  0  0  0
 18  1  1  0  0  0  0
 18 21  1  0  0  0  0
 19 18  2  0  0  0  0
 20 18  2  0  0  0  0
 21 23  2  0  0  0  0
 21 22  1  0  0  0  0
 22 24  2  0  0  0  0
 23 25  1  0  0  0  0
 25 24  1  0  0  0  0
 25 27  1  0  0  0  0
 26 23  1  0  0  0  0
 26 28  1  0  0  0  0
 28 29  1  0  0  0  0
 29 27  1  0  0  0  0
M  END
>  <minimizedAffinity>
-9.09570599

>  <CNNscore>
0.225072607

>  <CNNaffinity>
6.23335648

$$$$
