
 OpenBabel08272614263D

 38 41  0  0  1  0  0  0  0  0999 V2000
   18.9150   32.6980  125.7750 C   0  0  0  0  0  0  0  0  0  0  0  0
   19.9630   32.0830  125.1030 C   0  0  0  0  0  0  0  0  0  0  0  0
   20.8230   32.8550  124.3290 C   0  0  0  0  0  0  0  0  0  0  0  0
   21.8300   32.2560  123.6770 F   0  0  0  0  0  0  0  0  0  0  0  0
   20.6640   34.2330  124.2150 C   0  0  0  0  0  0  0  0  0  0  0  0
   19.6250   34.8890  124.8890 C   0  0  0  0  0  0  0  0  0  0  0  0
   18.7530   34.0860  125.6590 C   0  0  0  0  0  0  0  0  0  0  0  0
   17.9830   32.0800  126.5620 O   0  0  0  0  0  0  0  0  0  0  0  0
   18.2820   31.8600  127.9410 C   0  0  0  0  0  0  0  0  0  0  0  0
   18.5220   30.3710  128.2400 C   0  0  0  0  0  0  0  0  0  0  0  0
   20.0050   30.0100  128.1130 C   0  0  0  0  0  0  0  0  0  0  0  0
   17.6790   29.5020  127.3070 C   0  0  0  0  0  0  0  0  0  0  0  0
   19.4270   36.3520  124.8040 C   0  0  0  0  0  0  0  0  0  0  0  0
   20.4360   37.2710  125.0670 C   0  0  0  0  0  0  0  0  0  0  0  0
   18.1700   36.7460  124.4750 N   0  0  0  0  0  0  0  0  0  0  0  0
   20.1540   38.6280  124.9650 C   0  0  0  0  0  0  0  0  0  0  0  0
   17.8880   38.0760  124.3680 C   0  0  0  0  0  0  0  0  0  0  0  0
   18.8740   39.0480  124.5930 C   0  0  0  0  0  0  0  0  0  0  0  0
   16.5750   38.4220  124.0740 N   0  0  0  0  0  0  0  0  0  0  0  0
   16.3270   38.5890  122.6400 C   0  0  0  0  0  0  0  0  0  0  0  0
   15.4460   37.7300  124.7310 C   0  0  0  0  0  0  0  0  0  0  0  0
   14.8040   38.4960  122.5270 C   0  0  2  0  0  0  0  0  0  0  0  0
   14.4820   37.4180  123.5600 C   0  0  0  0  0  0  0  0  0  0  0  0
   15.7960   36.4370  125.4770 C   0  0  0  0  0  0  0  0  0  0  0  0
   14.7950   38.7170  125.7170 C   0  0  0  0  0  0  0  0  0  0  0  0
   14.3260   38.1460  121.1290 C   0  0  0  0  0  0  0  0  0  0  0  0
   18.6660   40.5230  124.5000 C   0  0  0  0  0  0  0  0  0  0  0  0
   18.2170   40.9510  123.4340 O   0  0  0  0  0  0  0  0  0  0  0  0
   19.0160   41.2790  125.5390 N   0  0  0  0  0  0  0  0  0  0  0  0
   17.8990   41.5080  126.6510 S   0  0  0  0  0  0  0  0  0  0  0  0
   18.3620   42.2770  127.8070 O   0  0  0  0  0  0  0  0  0  0  0  0
   17.1050   40.3320  127.0120 O   0  0  0  0  0  0  0  0  0  0  0  0
   16.6610   42.6380  125.9530 C   0  0  0  0  0  0  0  0  0  0  0  0
   15.7510   42.1350  125.0200 C   0  0  0  0  0  0  0  0  0  0  0  0
   16.6330   43.9800  126.3360 C   0  0  0  0  0  0  0  0  0  0  0  0
   14.7950   42.9880  124.4700 C   0  0  0  0  0  0  0  0  0  0  0  0
   15.6760   44.8290  125.7790 C   0  0  0  0  0  0  0  0  0  0  0  0
   14.7590   44.3330  124.8490 C   0  0  0  0  0  0  0  0  0  0  0  0
  1  8  1  0  0  0  0
  2  1  2  0  0  0  0
  3  2  1  0  0  0  0
  4  3  1  0  0  0  0
  5  3  2  0  0  0  0
  5  6  1  0  0  0  0
  6  7  2  0  0  0  0
  7  1  1  0  0  0  0
  8  9  1  0  0  0  0
  9 10  1  0  0  0  0
 11 10  1  0  0  0  0
 12 10  1  0  0  0  0
 13  6  1  0  0  0  0
 13 14  1  0  0  0  0
 15 13  2  0  0  0  0
 16 14  2  0  0  0  0
 17 15  1  0  0  0  0
 17 18  2  0  0  0  0
 18 16  1  0  0  0  0
 19 17  1  0  0  0  0
 19 21  1  0  0  0  0
 20 19  1  0  0  0  0
 21 24  1  0  0  0  0
 21 25  1  0  0  0  0
 22 26  1  6  0  0  0
 22 20  1  0  0  0  0
 22 23  1  0  0  0  0
 23 21  1  0  0  0  0
 27 18  1  0  0  0  0
 27 29  1  0  0  0  0
 28 27  2  0  0  0  0
 29 30  1  0  0  0  0
 30 32  2  0  0  0  0
 30 31  2  0  0  0  0
 33 35  1  0  0  0  0
 33 30  1  0  0  0  0
 34 33  2  0  0  0  0
 36 38  2  0  0  0  0
 36 34  1  0  0  0  0
 37 35  2  0  0  0  0
 38 37  1  0  0  0  0
M  END
>  <minimizedAffinity>
-9.78335953

>  <CNNscore>
0.558195829

>  <CNNaffinity>
7.18639612

$$$$

 OpenBabel08272614263D

 38 41  0  0  1  0  0  0  0  0999 V2000
   18.3450   34.8620  125.4240 C   0  0  0  0  0  0  0  0  0  0  0  0
   19.6910   35.2000  125.3670 C   0  0  0  0  0  0  0  0  0  0  0  0
   20.0680   36.3990  124.7710 C   0  0  0  0  0  0  0  0  0  0  0  0
   21.3690   36.7190  124.7130 F   0  0  0  0  0  0  0  0  0  0  0  0
   19.1280   37.2740  124.2340 C   0  0  0  0  0  0  0  0  0  0  0  0
   17.7610   36.9710  124.2840 C   0  0  0  0  0  0  0  0  0  0  0  0
   17.3990   35.7420  124.8810 C   0  0  0  0  0  0  0  0  0  0  0  0
   17.8190   33.7220  125.9640 O   0  0  0  0  0  0  0  0  0  0  0  0
   18.2430   33.3150  127.2660 C   0  0  0  0  0  0  0  0  0  0  0  0
   18.8110   31.8870  127.2590 C   0  0  0  0  0  0  0  0  0  0  0  0
   18.4510   31.1510  125.9650 C   0  0  0  0  0  0  0  0  0  0  0  0
   18.3050   31.1100  128.4740 C   0  0  0  0  0  0  0  0  0  0  0  0
   16.7300   37.8770  123.7350 C   0  0  0  0  0  0  0  0  0  0  0  0
   15.4780   37.4380  123.3160 C   0  0  0  0  0  0  0  0  0  0  0  0
   17.0980   39.1790  123.6380 N   0  0  0  0  0  0  0  0  0  0  0  0
   14.5750   38.3650  122.8100 C   0  0  0  0  0  0  0  0  0  0  0  0
   16.2140   40.0950  123.1480 C   0  0  0  0  0  0  0  0  0  0  0  0
   14.9280   39.7150  122.7370 C   0  0  0  0  0  0  0  0  0  0  0  0
   16.6620   41.4050  123.0280 N   0  0  0  0  0  0  0  0  0  0  0  0
   16.1790   42.0730  121.8180 C   0  0  0  0  0  0  0  0  0  0  0  0
   16.6370   42.3220  124.1870 C   0  0  0  0  0  0  0  0  0  0  0  0
   16.3860   43.5580  122.1220 C   0  0  2  0  0  0  0  0  0  0  0  0
   16.0300   43.6220  123.6070 C   0  0  0  0  0  0  0  0  0  0  0  0
   15.8110   41.8540  125.3920 C   0  0  0  0  0  0  0  0  0  0  0  0
   18.0900   42.5580  124.6370 C   0  0  0  0  0  0  0  0  0  0  0  0
   15.5310   44.4720  121.2630 C   0  0  0  0  0  0  0  0  0  0  0  0
   13.8920   40.6380  122.1890 C   0  0  0  0  0  0  0  0  0  0  0  0
   13.6500   40.5430  120.9830 O   0  0  0  0  0  0  0  0  0  0  0  0
   13.3350   41.5260  123.0110 N   0  0  0  0  0  0  0  0  0  0  0  0
   11.7680   41.3700  123.2570 S   0  0  0  0  0  0  0  0  0  0  0  0
   11.3270   41.8250  124.5770 O   0  0  0  0  0  0  0  0  0  0  0  0
   11.1810   40.0910  122.8540 O   0  0  0  0  0  0  0  0  0  0  0  0
   10.9280   42.5640  122.1780 C   0  0  0  0  0  0  0  0  0  0  0  0
   11.6480   43.1310  121.1230 C   0  0  0  0  0  0  0  0  0  0  0  0
    9.5960   42.9120  122.4100 C   0  0  0  0  0  0  0  0  0  0  0  0
   11.0210   44.0520  120.2850 C   0  0  0  0  0  0  0  0  0  0  0  0
    8.9760   43.8370  121.5690 C   0  0  0  0  0  0  0  0  0  0  0  0
    9.6870   44.4050  120.5090 C   0  0  0  0  0  0  0  0  0  0  0  0
  1  8  1  0  0  0  0
  2  1  1  0  0  0  0
  3  2  2  0  0  0  0
  4  3  1  0  0  0  0
  5  6  2  0  0  0  0
  5  3  1  0  0  0  0
  6  7  1  0  0  0  0
  7  1  2  0  0  0  0
  8  9  1  0  0  0  0
 10  9  1  0  0  0  0
 10 12  1  0  0  0  0
 11 10  1  0  0  0  0
 13  6  1  0  0  0  0
 14 13  2  0  0  0  0
 15 13  1  0  0  0  0
 16 14  1  0  0  0  0
 17 15  2  0  0  0  0
 18 16  2  0  0  0  0
 18 17  1  0  0  0  0
 19 17  1  0  0  0  0
 19 21  1  0  0  0  0
 20 22  1  0  0  0  0
 20 19  1  0  0  0  0
 21 25  1  0  0  0  0
 21 24  1  0  0  0  0
 22 26  1  6  0  0  0
 22 23  1  0  0  0  0
 23 21  1  0  0  0  0
 27 18  1  0  0  0  0
 27 29  1  0  0  0  0
 28 27  2  0  0  0  0
 29 30  1  0  0  0  0
 30 31  2  0  0  0  0
 32 30  2  0  0  0  0
 33 35  1  0  0  0  0
 33 30  1  0  0  0  0
 34 33  2  0  0  0  0
 36 38  2  0  0  0  0
 36 34  1  0  0  0  0
 37 35  2  0  0  0  0
 38 37  1  0  0  0  0
M  END
>  <minimizedAffinity>
-7.6069665

>  <CNNscore>
0.355675042

>  <CNNaffinity>
6.62037706

$$$$

 OpenBabel08272614263D

 38 41  0  0  1  0  0  0  0  0999 V2000
   17.8110   35.2550  125.4570 C   0  0  0  0  0  0  0  0  0  0  0  0
   19.1640   35.5560  125.3790 C   0  0  0  0  0  0  0  0  0  0  0  0
   19.5700   36.6950  124.6920 C   0  0  0  0  0  0  0  0  0  0  0  0
   20.8780   36.9800  124.6150 F   0  0  0  0  0  0  0  0  0  0  0  0
   18.6520   37.5470  124.0850 C   0  0  0  0  0  0  0  0  0  0  0  0
   17.2780   37.2810  124.1540 C   0  0  0  0  0  0  0  0  0  0  0  0
   16.8860   36.1110  124.8430 C   0  0  0  0  0  0  0  0  0  0  0  0
   17.2560   34.1730  126.0820 O   0  0  0  0  0  0  0  0  0  0  0  0
   17.9520   33.5790  127.1800 C   0  0  0  0  0  0  0  0  0  0  0  0
   18.2690   32.0980  126.9170 C   0  0  0  0  0  0  0  0  0  0  0  0
   18.2320   31.2810  128.2120 C   0  0  0  0  0  0  0  0  0  0  0  0
   19.6320   31.9610  126.2380 C   0  0  0  0  0  0  0  0  0  0  0  0
   16.2700   38.1650  123.5320 C   0  0  0  0  0  0  0  0  0  0  0  0
   15.3780   37.7320  122.5560 C   0  0  0  0  0  0  0  0  0  0  0  0
   16.2880   39.4530  123.9600 N   0  0  0  0  0  0  0  0  0  0  0  0
   14.4670   38.6380  122.0270 C   0  0  0  0  0  0  0  0  0  0  0  0
   15.3930   40.3450  123.4490 C   0  0  0  0  0  0  0  0  0  0  0  0
   14.4520   39.9590  122.4840 C   0  0  0  0  0  0  0  0  0  0  0  0
   15.4890   41.6600  123.8900 N   0  0  0  0  0  0  0  0  0  0  0  0
   15.5290   41.7780  125.3490 C   0  0  0  0  0  0  0  0  0  0  0  0
   16.4320   42.6040  123.2540 C   0  0  0  0  0  0  0  0  0  0  0  0
   16.0890   43.1830  125.5790 C   0  0  2  0  0  0  0  0  0  0  0  0
   17.1220   43.2920  124.4570 C   0  0  0  0  0  0  0  0  0  0  0  0
   17.4880   41.9790  122.3360 C   0  0  0  0  0  0  0  0  0  0  0  0
   15.6080   43.6250  122.4480 C   0  0  0  0  0  0  0  0  0  0  0  0
   16.6880   43.3730  126.9610 C   0  0  0  0  0  0  0  0  0  0  0  0
   13.4340   40.8570  121.8650 C   0  0  0  0  0  0  0  0  0  0  0  0
   13.8440   41.6600  121.0230 O   0  0  0  0  0  0  0  0  0  0  0  0
   12.1730   40.7730  122.2870 N   0  0  0  0  0  0  0  0  0  0  0  0
   11.8560   41.4460  123.6960 S   0  0  0  0  0  0  0  0  0  0  0  0
   12.6620   42.6350  123.9790 O   0  0  0  0  0  0  0  0  0  0  0  0
   11.7470   40.5300  124.8330 O   0  0  0  0  0  0  0  0  0  0  0  0
   10.1940   42.1680  123.5910 C   0  0  0  0  0  0  0  0  0  0  0  0
    9.1230   41.4570  124.1380 C   0  0  0  0  0  0  0  0  0  0  0  0
    9.9970   43.4010  122.9650 C   0  0  0  0  0  0  0  0  0  0  0  0
    7.8380   41.9940  124.0640 C   0  0  0  0  0  0  0  0  0  0  0  0
    8.7080   43.9310  122.8930 C   0  0  0  0  0  0  0  0  0  0  0  0
    7.6320   43.2290  123.4420 C   0  0  0  0  0  0  0  0  0  0  0  0
  1  8  1  0  0  0  0
  2  1  1  0  0  0  0
  3  2  2  0  0  0  0
  4  3  1  0  0  0  0
  5  6  2  0  0  0  0
  5  3  1  0  0  0  0
  6  7  1  0  0  0  0
  7  1  2  0  0  0  0
  8  9  1  0  0  0  0
 10  9  1  0  0  0  0
 10 11  1  0  0  0  0
 12 10  1  0  0  0  0
 13 15  1  0  0  0  0
 13  6  1  0  0  0  0
 14 13  2  0  0  0  0
 16 18  2  0  0  0  0
 16 14  1  0  0  0  0
 17 19  1  0  0  0  0
 17 15  2  0  0  0  0
 18 17  1  0  0  0  0
 19 20  1  0  0  0  0
 20 22  1  0  0  0  0
 21 19  1  0  0  0  0
 21 23  1  0  0  0  0
 22 26  1  1  0  0  0
 23 22  1  0  0  0  0
 24 21  1  0  0  0  0
 25 21  1  0  0  0  0
 27 29  1  0  0  0  0
 27 18  1  0  0  0  0
 28 27  2  0  0  0  0
 29 30  1  0  0  0  0
 30 31  2  0  0  0  0
 30 32  2  0  0  0  0
 33 30  1  0  0  0  0
 33 34  1  0  0  0  0
 35 33  2  0  0  0  0
 36 34  2  0  0  0  0
 37 35  1  0  0  0  0
 37 38  2  0  0  0  0
 38 36  1  0  0  0  0
M  END
>  <minimizedAffinity>
-8.32348728

>  <CNNscore>
0.330337733

>  <CNNaffinity>
6.42824745

$$$$

 OpenBabel08272614263D

 38 41  0  0  1  0  0  0  0  0999 V2000
   19.1370   42.6680  125.4890 C   0  0  0  0  0  0  0  0  0  0  0  0
   20.2960   43.0320  126.1630 C   0  0  0  0  0  0  0  0  0  0  0  0
   21.1510   42.0410  126.6320 C   0  0  0  0  0  0  0  0  0  0  0  0
   22.2660   42.3970  127.2870 F   0  0  0  0  0  0  0  0  0  0  0  0
   20.8800   40.6900  126.4370 C   0  0  0  0  0  0  0  0  0  0  0  0
   19.7270   40.2860  125.7500 C   0  0  0  0  0  0  0  0  0  0  0  0
   18.8620   41.3060  125.2940 C   0  0  0  0  0  0  0  0  0  0  0  0
   18.1950   43.5170  124.9800 O   0  0  0  0  0  0  0  0  0  0  0  0
   17.1010   42.9710  124.2410 C   0  0  0  0  0  0  0  0  0  0  0  0
   15.7620   43.6010  124.6580 C   0  0  0  0  0  0  0  0  0  0  0  0
   15.8040   44.0870  126.1100 C   0  0  0  0  0  0  0  0  0  0  0  0
   14.6230   42.6020  124.4610 C   0  0  0  0  0  0  0  0  0  0  0  0
   19.4060   38.8630  125.5130 C   0  0  0  0  0  0  0  0  0  0  0  0
   20.3680   37.8580  125.5080 C   0  0  0  0  0  0  0  0  0  0  0  0
   18.0980   38.5980  125.2670 N   0  0  0  0  0  0  0  0  0  0  0  0
   19.9710   36.5470  125.2710 C   0  0  0  0  0  0  0  0  0  0  0  0
   17.7010   37.3130  125.0400 C   0  0  0  0  0  0  0  0  0  0  0  0
   18.6220   36.2560  125.0520 C   0  0  0  0  0  0  0  0  0  0  0  0
   16.3570   37.1090  124.7490 N   0  0  0  0  0  0  0  0  0  0  0  0
   15.5210   36.9700  125.9430 C   0  0  0  0  0  0  0  0  0  0  0  0
   15.6760   37.9160  123.7140 C   0  0  0  0  0  0  0  0  0  0  0  0
   14.1060   37.2240  125.4210 C   0  0  2  0  0  0  0  0  0  0  0  0
   14.3490   38.3300  124.3950 C   0  0  0  0  0  0  0  0  0  0  0  0
   16.4280   39.1640  123.2360 C   0  0  0  0  0  0  0  0  0  0  0  0
   15.4020   37.0030  122.5060 C   0  0  0  0  0  0  0  0  0  0  0  0
   13.1270   37.6250  126.5100 C   0  0  0  0  0  0  0  0  0  0  0  0
   18.2880   34.8210  124.8150 C   0  0  0  0  0  0  0  0  0  0  0  0
   18.7790   34.2980  123.8120 O   0  0  0  0  0  0  0  0  0  0  0  0
   17.4560   34.2160  125.6610 N   0  0  0  0  0  0  0  0  0  0  0  0
   17.9430   34.1140  127.1750 S   0  0  0  0  0  0  0  0  0  0  0  0
   16.8600   34.2190  128.1540 O   0  0  0  0  0  0  0  0  0  0  0  0
   19.1240   34.9060  127.5220 O   0  0  0  0  0  0  0  0  0  0  0  0
   18.5000   32.4080  127.4510 C   0  0  0  0  0  0  0  0  0  0  0  0
   17.7590   31.3660  126.8880 C   0  0  0  0  0  0  0  0  0  0  0  0
   19.6370   32.1510  128.2210 C   0  0  0  0  0  0  0  0  0  0  0  0
   18.1690   30.0490  127.0920 C   0  0  0  0  0  0  0  0  0  0  0  0
   20.0390   30.8310  128.4230 C   0  0  0  0  0  0  0  0  0  0  0  0
   19.3070   29.7820  127.8600 C   0  0  0  0  0  0  0  0  0  0  0  0
  1  2  1  0  0  0  0
  2  3  2  0  0  0  0
  3  4  1  0  0  0  0
  5  3  1  0  0  0  0
  6  5  2  0  0  0  0
  7  1  2  0  0  0  0
  7  6  1  0  0  0  0
  8  1  1  0  0  0  0
  9 10  1  0  0  0  0
  9  8  1  0  0  0  0
 10 11  1  0  0  0  0
 12 10  1  0  0  0  0
 13  6  1  0  0  0  0
 14 13  1  0  0  0  0
 15 13  2  0  0  0  0
 16 14  2  0  0  0  0
 17 18  2  0  0  0  0
 17 15  1  0  0  0  0
 18 16  1  0  0  0  0
 19 17  1  0  0  0  0
 19 20  1  0  0  0  0
 21 23  1  0  0  0  0
 21 19  1  0  0  0  0
 22 20  1  0  0  0  0
 22 26  1  1  0  0  0
 23 22  1  0  0  0  0
 24 21  1  0  0  0  0
 25 21  1  0  0  0  0
 27 18  1  0  0  0  0
 27 29  1  0  0  0  0
 28 27  2  0  0  0  0
 29 30  1  0  0  0  0
 30 33  1  0  0  0  0
 30 32  2  0  0  0  0
 30 31  2  0  0  0  0
 33 35  1  0  0  0  0
 34 36  1  0  0  0  0
 34 33  2  0  0  0  0
 35 37  2  0  0  0  0
 36 38  2  0  0  0  0
 38 37  1  0  0  0  0
M  END
>  <minimizedAffinity>
-8.60680199

>  <CNNscore>
0.268090904

>  <CNNaffinity>
6.74441719

$$$$

 OpenBabel08272614263D

 38 41  0  0  1  0  0  0  0  0999 V2000
   10.6320   42.7510  121.6660 C   0  0  0  0  0  0  0  0  0  0  0  0
   11.1730   43.4490  120.5940 C   0  0  0  0  0  0  0  0  0  0  0  0
   12.4450   43.1210  120.1400 C   0  0  0  0  0  0  0  0  0  0  0  0
   12.9660   43.8010  119.1080 F   0  0  0  0  0  0  0  0  0  0  0  0
   13.1910   42.1050  120.7290 C   0  0  0  0  0  0  0  0  0  0  0  0
   12.6730   41.3720  121.8060 C   0  0  0  0  0  0  0  0  0  0  0  0
   11.3840   41.7290  122.2620 C   0  0  0  0  0  0  0  0  0  0  0  0
    9.4050   42.9600  122.2330 O   0  0  0  0  0  0  0  0  0  0  0  0
    9.3400   43.4790  123.5630 C   0  0  0  0  0  0  0  0  0  0  0  0
    8.2150   42.8180  124.3760 C   0  0  0  0  0  0  0  0  0  0  0  0
    7.7840   41.4880  123.7520 C   0  0  0  0  0  0  0  0  0  0  0  0
    7.0210   43.7650  124.4940 C   0  0  0  0  0  0  0  0  0  0  0  0
   13.4270   40.2780  122.4540 C   0  0  0  0  0  0  0  0  0  0  0  0
   13.0510   38.9420  122.3680 C   0  0  0  0  0  0  0  0  0  0  0  0
   14.5110   40.6700  123.1710 N   0  0  0  0  0  0  0  0  0  0  0  0
   13.8230   37.9830  123.0150 C   0  0  0  0  0  0  0  0  0  0  0  0
   15.2750   39.7330  123.8030 C   0  0  0  0  0  0  0  0  0  0  0  0
   14.9610   38.3690  123.7280 C   0  0  0  0  0  0  0  0  0  0  0  0
   16.3440   40.1970  124.5610 N   0  0  0  0  0  0  0  0  0  0  0  0
   17.2690   39.1360  124.9650 C   0  0  0  0  0  0  0  0  0  0  0  0
   17.0750   41.4200  124.1690 C   0  0  0  0  0  0  0  0  0  0  0  0
   18.5400   39.8970  125.3490 C   0  0  2  0  0  0  0  0  0  0  0  0
   18.5620   41.0110  124.3030 C   0  0  0  0  0  0  0  0  0  0  0  0
   16.8030   41.9370  122.7510 C   0  0  0  0  0  0  0  0  0  0  0  0
   16.7260   42.5260  125.1810 C   0  0  0  0  0  0  0  0  0  0  0  0
   19.7880   39.0330  125.3280 C   0  0  0  0  0  0  0  0  0  0  0  0
   15.7320   37.2710  124.3820 C   0  0  0  0  0  0  0  0  0  0  0  0
   16.2730   36.4540  123.6330 O   0  0  0  0  0  0  0  0  0  0  0  0
   15.7480   37.2140  125.7130 N   0  0  0  0  0  0  0  0  0  0  0  0
   15.4350   35.7910  126.3590 S   0  0  0  0  0  0  0  0  0  0  0  0
   14.7040   34.8850  125.4720 O   0  0  0  0  0  0  0  0  0  0  0  0
   14.9180   35.8110  127.7290 O   0  0  0  0  0  0  0  0  0  0  0  0
   17.0150   34.9130  126.5310 C   0  0  0  0  0  0  0  0  0  0  0  0
   18.0810   35.2960  125.7140 C   0  0  0  0  0  0  0  0  0  0  0  0
   17.1490   33.8720  127.4520 C   0  0  0  0  0  0  0  0  0  0  0  0
   19.3020   34.6310  125.8280 C   0  0  0  0  0  0  0  0  0  0  0  0
   18.3720   33.2100  127.5590 C   0  0  0  0  0  0  0  0  0  0  0  0
   19.4460   33.5890  126.7490 C   0  0  0  0  0  0  0  0  0  0  0  0
  1  8  1  0  0  0  0
  1  7  1  0  0  0  0
  2  1  2  0  0  0  0
  3  2  1  0  0  0  0
  3  5  2  0  0  0  0
  4  3  1  0  0  0  0
  5  6  1  0  0  0  0
  6  7  2  0  0  0  0
  6 13  1  0  0  0  0
  8  9  1  0  0  0  0
  9 10  1  0  0  0  0
 10 12  1  0  0  0  0
 11 10  1  0  0  0  0
 13 15  1  0  0  0  0
 14 13  2  0  0  0  0
 14 16  1  0  0  0  0
 15 17  2  0  0  0  0
 16 18  2  0  0  0  0
 17 19  1  0  0  0  0
 18 17  1  0  0  0  0
 18 27  1  0  0  0  0
 19 20  1  0  0  0  0
 20 22  1  0  0  0  0
 21 23  1  0  0  0  0
 21 19  1  0  0  0  0
 21 25  1  0  0  0  0
 22 26  1  6  0  0  0
 23 22  1  0  0  0  0
 24 21  1  0  0  0  0
 27 29  1  0  0  0  0
 28 27  2  0  0  0  0
 29 30  1  0  0  0  0
 30 33  1  0  0  0  0
 30 32  2  0  0  0  0
 31 30  2  0  0  0  0
 33 35  1  0  0  0  0
 34 36  1  0  0  0  0
 34 33  2  0  0  0  0
 35 37  2  0  0  0  0
 36 38  2  0  0  0  0
 38 37  1  0  0  0  0
M  END
>  <minimizedAffinity>
-9.41025925

>  <CNNscore>
0.207191423

>  <CNNaffinity>
6.54714966

$$$$

 OpenBabel08272614263D

 38 41  0  0  1  0  0  0  0  0999 V2000
   21.0090   42.4070  126.2350 C   0  0  0  0  0  0  0  0  0  0  0  0
   20.3770   42.9720  127.3350 C   0  0  0  0  0  0  0  0  0  0  0  0
   19.4210   42.2350  128.0250 C   0  0  0  0  0  0  0  0  0  0  0  0
   18.8100   42.7860  129.0840 F   0  0  0  0  0  0  0  0  0  0  0  0
   19.0830   40.9390  127.6440 C   0  0  0  0  0  0  0  0  0  0  0  0
   19.7080   40.3340  126.5450 C   0  0  0  0  0  0  0  0  0  0  0  0
   20.6670   41.1030  125.8490 C   0  0  0  0  0  0  0  0  0  0  0  0
   21.9570   43.0030  125.4510 O   0  0  0  0  0  0  0  0  0  0  0  0
   22.8330   43.9660  126.0390 C   0  0  0  0  0  0  0  0  0  0  0  0
   24.3090   43.5710  125.8670 C   0  0  0  0  0  0  0  0  0  0  0  0
   24.7500   42.5790  126.9470 C   0  0  0  0  0  0  0  0  0  0  0  0
   25.1960   44.8160  125.8900 C   0  0  0  0  0  0  0  0  0  0  0  0
   19.3860   38.9570  126.1130 C   0  0  0  0  0  0  0  0  0  0  0  0
   20.3270   37.9330  126.0780 C   0  0  0  0  0  0  0  0  0  0  0  0
   18.1020   38.7600  125.7210 N   0  0  0  0  0  0  0  0  0  0  0  0
   19.9310   36.6700  125.6530 C   0  0  0  0  0  0  0  0  0  0  0  0
   17.7060   37.5220  125.3080 C   0  0  0  0  0  0  0  0  0  0  0  0
   18.6030   36.4440  125.2790 C   0  0  0  0  0  0  0  0  0  0  0  0
   16.3920   37.3910  124.8740 N   0  0  0  0  0  0  0  0  0  0  0  0
   15.4180   37.4020  125.9680 C   0  0  0  0  0  0  0  0  0  0  0  0
   15.8990   38.1620  123.7140 C   0  0  0  0  0  0  0  0  0  0  0  0
   14.0960   37.7140  125.2650 C   0  0  2  0  0  0  0  0  0  0  0  0
   14.5390   38.7190  124.2030 C   0  0  0  0  0  0  0  0  0  0  0  0
   16.7950   39.3150  123.2460 C   0  0  0  0  0  0  0  0  0  0  0  0
   15.6920   37.1820  122.5460 C   0  0  0  0  0  0  0  0  0  0  0  0
   13.0330   38.2640  126.2000 C   0  0  0  0  0  0  0  0  0  0  0  0
   18.2680   35.0560  124.8460 C   0  0  0  0  0  0  0  0  0  0  0  0
   18.7410   34.6840  123.7690 O   0  0  0  0  0  0  0  0  0  0  0  0
   17.4530   34.3330  125.6120 N   0  0  0  0  0  0  0  0  0  0  0  0
   17.8920   34.1550  127.1330 S   0  0  0  0  0  0  0  0  0  0  0  0
   16.7690   34.0800  128.0690 O   0  0  0  0  0  0  0  0  0  0  0  0
   18.9770   35.0230  127.5920 O   0  0  0  0  0  0  0  0  0  0  0  0
   18.6000   32.4920  127.3040 C   0  0  0  0  0  0  0  0  0  0  0  0
   17.9030   31.5460  128.0600 C   0  0  0  0  0  0  0  0  0  0  0  0
   19.8180   32.1760  126.7000 C   0  0  0  0  0  0  0  0  0  0  0  0
   18.4320   30.2640  128.2050 C   0  0  0  0  0  0  0  0  0  0  0  0
   20.3430   30.8920  126.8510 C   0  0  0  0  0  0  0  0  0  0  0  0
   19.6510   29.9380  127.6020 C   0  0  0  0  0  0  0  0  0  0  0  0
  1  2  1  0  0  0  0
  2  3  2  0  0  0  0
  3  4  1  0  0  0  0
  5  3  1  0  0  0  0
  6  5  2  0  0  0  0
  7  1  2  0  0  0  0
  7  6  1  0  0  0  0
  8  9  1  0  0  0  0
  8  1  1  0  0  0  0
 10 12  1  0  0  0  0
 10  9  1  0  0  0  0
 10 11  1  0  0  0  0
 13  6  1  0  0  0  0
 14 13  1  0  0  0  0
 15 13  2  0  0  0  0
 16 14  2  0  0  0  0
 17 15  1  0  0  0  0
 18 17  2  0  0  0  0
 18 16  1  0  0  0  0
 19 17  1  0  0  0  0
 19 20  1  0  0  0  0
 21 23  1  0  0  0  0
 21 19  1  0  0  0  0
 22 20  1  0  0  0  0
 22 26  1  1  0  0  0
 23 22  1  0  0  0  0
 24 21  1  0  0  0  0
 25 21  1  0  0  0  0
 27 18  1  0  0  0  0
 27 29  1  0  0  0  0
 28 27  2  0  0  0  0
 29 30  1  0  0  0  0
 30 33  1  0  0  0  0
 30 32  2  0  0  0  0
 30 31  2  0  0  0  0
 33 34  1  0  0  0  0
 34 36  2  0  0  0  0
 35 37  1  0  0  0  0
 35 33  2  0  0  0  0
 37 38  2  0  0  0  0
 38 36  1  0  0  0  0
M  END
>  <minimizedAffinity>
-7.87878561

>  <CNNscore>
0.184565142

>  <CNNaffinity>
6.41105652

$$$$

 OpenBabel08272614263D

 38 41  0  0  1  0  0  0  0  0999 V2000
   19.5940   32.9370  126.4430 C   0  0  0  0  0  0  0  0  0  0  0  0
   20.1890   32.4490  125.2860 C   0  0  0  0  0  0  0  0  0  0  0  0
   20.2740   33.2680  124.1660 C   0  0  0  0  0  0  0  0  0  0  0  0
   20.8440   32.7920  123.0500 F   0  0  0  0  0  0  0  0  0  0  0  0
   19.7830   34.5710  124.1750 C   0  0  0  0  0  0  0  0  0  0  0  0
   19.1870   35.1000  125.3270 C   0  0  0  0  0  0  0  0  0  0  0  0
   19.0970   34.2480  126.4510 C   0  0  0  0  0  0  0  0  0  0  0  0
   19.4250   32.2570  127.6160 O   0  0  0  0  0  0  0  0  0  0  0  0
   18.2040   31.5470  127.8320 C   0  0  0  0  0  0  0  0  0  0  0  0
   18.4540   30.0560  128.1090 C   0  0  0  0  0  0  0  0  0  0  0  0
   19.9310   29.6950  127.9210 C   0  0  0  0  0  0  0  0  0  0  0  0
   17.5740   29.1950  127.2030 C   0  0  0  0  0  0  0  0  0  0  0  0
   18.6620   36.4810  125.3830 C   0  0  0  0  0  0  0  0  0  0  0  0
   19.3210   37.5190  126.0330 C   0  0  0  0  0  0  0  0  0  0  0  0
   17.4640   36.6690  124.7730 N   0  0  0  0  0  0  0  0  0  0  0  0
   18.7470   38.7850  126.0350 C   0  0  0  0  0  0  0  0  0  0  0  0
   16.8980   37.9100  124.7660 C   0  0  0  0  0  0  0  0  0  0  0  0
   17.5310   39.0000  125.3810 C   0  0  0  0  0  0  0  0  0  0  0  0
   15.6500   38.0310  124.1680 N   0  0  0  0  0  0  0  0  0  0  0  0
   14.6190   38.5350  125.0780 C   0  0  0  0  0  0  0  0  0  0  0  0
   15.5100   38.6300  122.8230 C   0  0  0  0  0  0  0  0  0  0  0  0
   13.5140   39.0170  124.1360 C   0  0  2  0  0  0  0  0  0  0  0  0
   14.3260   39.6130  122.9870 C   0  0  0  0  0  0  0  0  0  0  0  0
   16.7390   39.3790  122.2940 C   0  0  0  0  0  0  0  0  0  0  0  0
   15.1460   37.5040  121.8390 C   0  0  0  0  0  0  0  0  0  0  0  0
   12.5680   40.0150  124.7790 C   0  0  0  0  0  0  0  0  0  0  0  0
   16.9950   40.3920  125.4270 C   0  0  0  0  0  0  0  0  0  0  0  0
   15.9260   40.5530  126.0210 O   0  0  0  0  0  0  0  0  0  0  0  0
   17.6680   41.3510  124.7950 N   0  0  0  0  0  0  0  0  0  0  0  0
   17.0990   42.8310  124.9520 S   0  0  0  0  0  0  0  0  0  0  0  0
   18.0270   43.8730  124.5100 O   0  0  0  0  0  0  0  0  0  0  0  0
   16.4470   43.1330  126.2280 O   0  0  0  0  0  0  0  0  0  0  0  0
   15.7550   43.0270  123.7480 C   0  0  0  0  0  0  0  0  0  0  0  0
   14.4560   43.2180  124.2260 C   0  0  0  0  0  0  0  0  0  0  0  0
   16.0190   42.9740  122.3780 C   0  0  0  0  0  0  0  0  0  0  0  0
   13.4090   43.3670  123.3170 C   0  0  0  0  0  0  0  0  0  0  0  0
   14.9660   43.1210  121.4750 C   0  0  0  0  0  0  0  0  0  0  0  0
   13.6640   43.3180  121.9430 C   0  0  0  0  0  0  0  0  0  0  0  0
  1  7  1  0  0  0  0
  1  8  1  0  0  0  0
  2  1  2  0  0  0  0
  3  5  2  0  0  0  0
  3  2  1  0  0  0  0
  4  3  1  0  0  0  0
  5  6  1  0  0  0  0
  6 13  1  0  0  0  0
  6  7  2  0  0  0  0
  8  9  1  0  0  0  0
  9 10  1  0  0  0  0
 11 10  1  0  0  0  0
 12 10  1  0  0  0  0
 13 14  1  0  0  0  0
 14 16  2  0  0  0  0
 15 13  2  0  0  0  0
 17 15  1  0  0  0  0
 17 18  2  0  0  0  0
 18 27  1  0  0  0  0
 18 16  1  0  0  0  0
 19 17  1  0  0  0  0
 19 20  1  0  0  0  0
 21 23  1  0  0  0  0
 21 19  1  0  0  0  0
 22 26  1  1  0  0  0
 22 20  1  0  0  0  0
 23 22  1  0  0  0  0
 24 21  1  0  0  0  0
 25 21  1  0  0  0  0
 27 28  2  0  0  0  0
 29 30  1  0  0  0  0
 29 27  1  0  0  0  0
 30 32  2  0  0  0  0
 31 30  2  0  0  0  0
 33 34  1  0  0  0  0
 33 30  1  0  0  0  0
 35 33  2  0  0  0  0
 36 34  2  0  0  0  0
 37 38  2  0  0  0  0
 37 35  1  0  0  0  0
 38 36  1  0  0  0  0
M  END
>  <minimizedAffinity>
-7.94522381

>  <CNNscore>
0.172764078

>  <CNNaffinity>
6.50611162

$$$$

 OpenBabel08272614263D

 38 41  0  0  1  0  0  0  0  0999 V2000
   18.6600   33.4740  126.5500 C   0  0  0  0  0  0  0  0  0  0  0  0
   19.7200   33.2660  125.6760 C   0  0  0  0  0  0  0  0  0  0  0  0
   19.8750   34.1080  124.5810 C   0  0  0  0  0  0  0  0  0  0  0  0
   20.8960   33.9010  123.7370 F   0  0  0  0  0  0  0  0  0  0  0  0
   18.9980   35.1620  124.3400 C   0  0  0  0  0  0  0  0  0  0  0  0
   17.9240   35.4080  125.2080 C   0  0  0  0  0  0  0  0  0  0  0  0
   17.7750   34.5330  126.3060 C   0  0  0  0  0  0  0  0  0  0  0  0
   18.3670   32.7300  127.6600 O   0  0  0  0  0  0  0  0  0  0  0  0
   19.4410   32.2150  128.4480 C   0  0  0  0  0  0  0  0  0  0  0  0
   19.0950   30.8450  129.0530 C   0  0  0  0  0  0  0  0  0  0  0  0
   20.3050   30.2240  129.7560 C   0  0  0  0  0  0  0  0  0  0  0  0
   18.5670   29.9060  127.9690 C   0  0  0  0  0  0  0  0  0  0  0  0
   16.9760   36.5220  124.9940 C   0  0  0  0  0  0  0  0  0  0  0  0
   15.5950   36.3620  125.0370 C   0  0  0  0  0  0  0  0  0  0  0  0
   17.5470   37.7230  124.7220 N   0  0  0  0  0  0  0  0  0  0  0  0
   14.7820   37.4690  124.8210 C   0  0  0  0  0  0  0  0  0  0  0  0
   16.7550   38.8140  124.5130 C   0  0  0  0  0  0  0  0  0  0  0  0
   15.3570   38.7190  124.5740 C   0  0  0  0  0  0  0  0  0  0  0  0
   17.3940   40.0060  124.1930 N   0  0  0  0  0  0  0  0  0  0  0  0
   16.7120   40.7620  123.1400 C   0  0  0  0  0  0  0  0  0  0  0  0
   17.8950   40.9050  125.2530 C   0  0  0  0  0  0  0  0  0  0  0  0
   17.2850   42.1730  123.2840 C   0  0  2  0  0  0  0  0  0  0  0  0
   17.4080   42.3030  124.8010 C   0  0  0  0  0  0  0  0  0  0  0  0
   17.3920   40.6120  126.6720 C   0  0  0  0  0  0  0  0  0  0  0  0
   19.4320   40.8390  125.2430 C   0  0  0  0  0  0  0  0  0  0  0  0
   16.4080   43.2450  122.6620 C   0  0  0  0  0  0  0  0  0  0  0  0
   14.4080   39.8500  124.3610 C   0  0  0  0  0  0  0  0  0  0  0  0
   14.7840   40.9640  124.7330 O   0  0  0  0  0  0  0  0  0  0  0  0
   13.2130   39.5840  123.8360 N   0  0  0  0  0  0  0  0  0  0  0  0
   13.0540   39.8600  122.2750 S   0  0  0  0  0  0  0  0  0  0  0  0
   11.7860   39.3880  121.7160 O   0  0  0  0  0  0  0  0  0  0  0  0
   14.2150   39.5320  121.4460 O   0  0  0  0  0  0  0  0  0  0  0  0
   12.8870   41.6540  122.0540 C   0  0  0  0  0  0  0  0  0  0  0  0
   13.5600   42.2600  120.9910 C   0  0  0  0  0  0  0  0  0  0  0  0
   12.1110   42.4060  122.9390 C   0  0  0  0  0  0  0  0  0  0  0  0
   13.4470   43.6370  120.8070 C   0  0  0  0  0  0  0  0  0  0  0  0
   12.0040   43.7840  122.7500 C   0  0  0  0  0  0  0  0  0  0  0  0
   12.6710   44.3980  121.6860 C   0  0  0  0  0  0  0  0  0  0  0  0
  1  8  1  0  0  0  0
  2  1  2  0  0  0  0
  3  2  1  0  0  0  0
  4  3  1  0  0  0  0
  5  3  2  0  0  0  0
  5  6  1  0  0  0  0
  6  7  2  0  0  0  0
  7  1  1  0  0  0  0
  8  9  1  0  0  0  0
  9 10  1  0  0  0  0
 10 11  1  0  0  0  0
 12 10  1  0  0  0  0
 13 14  1  0  0  0  0
 13  6  1  0  0  0  0
 15 13  2  0  0  0  0
 16 14  2  0  0  0  0
 17 18  2  0  0  0  0
 17 15  1  0  0  0  0
 18 16  1  0  0  0  0
 19 17  1  0  0  0  0
 19 21  1  0  0  0  0
 20 22  1  0  0  0  0
 20 19  1  0  0  0  0
 21 24  1  0  0  0  0
 22 26  1  1  0  0  0
 22 23  1  0  0  0  0
 23 21  1  0  0  0  0
 25 21  1  0  0  0  0
 27 18  1  0  0  0  0
 27 28  2  0  0  0  0
 29 27  1  0  0  0  0
 30 29  1  0  0  0  0
 31 30  2  0  0  0  0
 32 30  2  0  0  0  0
 33 30  1  0  0  0  0
 33 35  1  0  0  0  0
 34 33  2  0  0  0  0
 36 34  1  0  0  0  0
 36 38  2  0  0  0  0
 37 35  2  0  0  0  0
 38 37  1  0  0  0  0
M  END
>  <minimizedAffinity>
-8.66779232

>  <CNNscore>
0.152683377

>  <CNNaffinity>
6.47204018

$$$$

 OpenBabel08272614263D

 38 41  0  0  1  0  0  0  0  0999 V2000
   18.7710   33.5800  126.5340 C   0  0  0  0  0  0  0  0  0  0  0  0
   19.7770   33.5640  125.5760 C   0  0  0  0  0  0  0  0  0  0  0  0
   19.7260   34.4650  124.5190 C   0  0  0  0  0  0  0  0  0  0  0  0
   20.6970   34.4430  123.5940 F   0  0  0  0  0  0  0  0  0  0  0  0
   18.6930   35.3910  124.3980 C   0  0  0  0  0  0  0  0  0  0  0  0
   17.6670   35.4430  125.3520 C   0  0  0  0  0  0  0  0  0  0  0  0
   17.7290   34.5100  126.4110 C   0  0  0  0  0  0  0  0  0  0  0  0
   18.6740   32.7560  127.6210 O   0  0  0  0  0  0  0  0  0  0  0  0
   19.7970   31.9480  127.9770 C   0  0  0  0  0  0  0  0  0  0  0  0
   19.3620   30.5780  128.5220 C   0  0  0  0  0  0  0  0  0  0  0  0
   18.1470   30.0370  127.7640 C   0  0  0  0  0  0  0  0  0  0  0  0
   19.0590   30.6760  130.0170 C   0  0  0  0  0  0  0  0  0  0  0  0
   16.5580   36.4160  125.2670 C   0  0  0  0  0  0  0  0  0  0  0  0
   15.2260   36.0390  125.1360 C   0  0  0  0  0  0  0  0  0  0  0  0
   16.9310   37.7210  125.2960 N   0  0  0  0  0  0  0  0  0  0  0  0
   14.2510   37.0280  125.0590 C   0  0  0  0  0  0  0  0  0  0  0  0
   15.9790   38.6950  125.2280 C   0  0  0  0  0  0  0  0  0  0  0  0
   14.6180   38.3750  125.1240 C   0  0  0  0  0  0  0  0  0  0  0  0
   16.4230   40.0120  125.2150 N   0  0  0  0  0  0  0  0  0  0  0  0
   17.1140   40.4010  126.4470 C   0  0  0  0  0  0  0  0  0  0  0  0
   17.1000   40.5710  124.0260 C   0  0  0  0  0  0  0  0  0  0  0  0
   17.8890   41.6560  126.0410 C   0  0  2  0  0  0  0  0  0  0  0  0
   18.3280   41.3030  124.6210 C   0  0  0  0  0  0  0  0  0  0  0  0
   17.5580   39.5530  122.9760 C   0  0  0  0  0  0  0  0  0  0  0  0
   16.1410   41.5770  123.3640 C   0  0  0  0  0  0  0  0  0  0  0  0
   19.0520   41.9690  126.9650 C   0  0  0  0  0  0  0  0  0  0  0  0
   13.5040   39.3650  125.0430 C   0  0  0  0  0  0  0  0  0  0  0  0
   12.5790   39.2230  125.8470 O   0  0  0  0  0  0  0  0  0  0  0  0
   13.5520   40.2970  124.0930 N   0  0  0  0  0  0  0  0  0  0  0  0
   12.6200   40.0570  122.8240 S   0  0  0  0  0  0  0  0  0  0  0  0
   11.8570   38.8080  122.8760 O   0  0  0  0  0  0  0  0  0  0  0  0
   13.2350   40.3110  121.5200 O   0  0  0  0  0  0  0  0  0  0  0  0
   11.2840   41.2840  122.8920 C   0  0  0  0  0  0  0  0  0  0  0  0
   10.4800   41.3310  124.0330 C   0  0  0  0  0  0  0  0  0  0  0  0
   11.0640   42.1500  121.8180 C   0  0  0  0  0  0  0  0  0  0  0  0
    9.4470   42.2650  124.1030 C   0  0  0  0  0  0  0  0  0  0  0  0
   10.0270   43.0800  121.8940 C   0  0  0  0  0  0  0  0  0  0  0  0
    9.2200   43.1370  123.0330 C   0  0  0  0  0  0  0  0  0  0  0  0
  1  8  1  0  0  0  0
  2  1  2  0  0  0  0
  3  2  1  0  0  0  0
  4  3  1  0  0  0  0
  5  3  2  0  0  0  0
  5  6  1  0  0  0  0
  6  7  2  0  0  0  0
  7  1  1  0  0  0  0
  8  9  1  0  0  0  0
  9 10  1  0  0  0  0
 10 12  1  0  0  0  0
 11 10  1  0  0  0  0
 13 15  1  0  0  0  0
 13  6  1  0  0  0  0
 14 13  2  0  0  0  0
 16 18  2  0  0  0  0
 16 14  1  0  0  0  0
 17 15  2  0  0  0  0
 18 17  1  0  0  0  0
 19 17  1  0  0  0  0
 19 20  1  0  0  0  0
 21 23  1  0  0  0  0
 21 19  1  0  0  0  0
 22 20  1  0  0  0  0
 22 26  1  1  0  0  0
 23 22  1  0  0  0  0
 24 21  1  0  0  0  0
 25 21  1  0  0  0  0
 27 18  1  0  0  0  0
 27 28  2  0  0  0  0
 29 27  1  0  0  0  0
 30 31  2  0  0  0  0
 30 33  1  0  0  0  0
 30 29  1  0  0  0  0
 32 30  2  0  0  0  0
 33 34  1  0  0  0  0
 34 36  2  0  0  0  0
 35 37  1  0  0  0  0
 35 33  2  0  0  0  0
 37 38  2  0  0  0  0
 38 36  1  0  0  0  0
M  END
>  <minimizedAffinity>
-9.1974535

>  <CNNscore>
0.150723413

>  <CNNaffinity>
6.39762735

$$$$
