AJAWHQDUZDCYMQ-UHFFFAOYSA-N
     RDKit          3D

 32 36  0  0  0  0  0  0  0  0999 V2000
   10.0810  -21.2120   20.7730 C   0  0  0  0  0  0  0  0  0  0  0  0
    8.9510  -20.1910   20.7510 C   0  0  0  0  0  0  0  0  0  0  0  0
    7.7110  -20.5920   19.9270 C   0  0  0  0  0  0  0  0  0  0  0  0
    6.8880  -19.4160   19.3630 C   0  0  0  0  0  0  0  0  0  0  0  0
    7.3720  -18.0570   19.8490 C   0  0  0  0  0  0  0  0  0  0  0  0
    6.8760  -21.5530   20.6520 N   0  0  0  0  0  0  0  0  0  0  0  0
    7.1470  -22.8640   20.9390 C   0  0  0  0  0  0  0  0  0  0  0  0
    6.0590  -23.3600   21.6330 C   0  0  0  0  0  0  0  0  0  0  0  0
    5.8160  -24.6900   22.1510 C   0  0  0  0  0  0  0  0  0  0  0  0
    6.7240  -25.1940   22.9360 N   0  0  0  0  0  0  0  0  0  0  0  0
    6.5200  -26.4530   23.4810 C   0  0  0  0  0  0  0  0  0  0  0  0
    7.5790  -26.9020   24.3340 C   0  0  0  0  0  0  0  0  0  0  0  0
    7.7920  -28.1990   24.8530 C   0  0  0  0  0  0  0  0  0  0  0  0
    8.8830  -28.2770   25.6210 N   0  0  0  0  0  0  0  0  0  0  0  0
    9.3720  -27.0240   25.5990 N   0  0  0  0  0  0  0  0  0  0  0  0
   10.5810  -26.7040   26.3390 C   0  0  0  0  0  0  0  0  0  0  0  0
   11.0930  -27.9180   27.1230 C   0  0  0  0  0  0  0  0  0  0  0  0
   12.5540  -28.1200   27.0100 N   0  0  0  0  0  0  0  0  0  0  0  0
   12.9320  -28.2710   25.5840 C   0  0  0  0  0  0  0  0  0  0  0  0
   14.4520  -28.4190   25.4130 C   0  0  0  0  0  0  0  0  0  0  0  0
   15.1440  -27.2910   25.9670 O   0  0  0  0  0  0  0  0  0  0  0  0
   14.8330  -27.1620   27.3590 C   0  0  0  0  0  0  0  0  0  0  0  0
   13.3200  -26.9880   27.5780 C   0  0  0  0  0  0  0  0  0  0  0  0
    8.6280  -26.1630   24.8410 C   0  0  0  0  0  0  0  0  0  0  0  0
    5.4100  -27.1690   23.2240 C   0  0  0  0  0  0  0  0  0  0  0  0
    4.4470  -26.6550   22.3770 N   0  0  0  0  0  0  0  0  0  0  0  0
    3.2850  -27.2310   21.9910 N   0  0  0  0  0  0  0  0  0  0  0  0
    2.7560  -26.3670   21.1240 C   0  0  0  0  0  0  0  0  0  0  0  0
    3.5490  -25.2200   20.9560 C   0  0  0  0  0  0  0  0  0  0  0  0
    4.6210  -25.4130   21.8000 C   0  0  0  0  0  0  0  0  0  0  0  0
    5.1710  -22.2570   21.6760 C   0  0  0  0  0  0  0  0  0  0  0  0
    5.6700  -21.1600   21.1030 N   0  0  0  0  0  0  0  0  0  0  0  0
  1  2  1  0
  2  3  1  0
  3  4  1  0
  4  5  1  0
  3  6  1  0
  6  7  1  0
  7  8  2  0
  8  9  1  0
  9 10  2  0
 10 11  1  0
 11 12  1  0
 12 13  1  0
 13 14  2  0
 14 15  1  0
 15 16  1  0
 16 17  1  0
 17 18  1  0
 18 19  1  0
 19 20  1  0
 20 21  1  0
 21 22  1  0
 22 23  1  0
 15 24  1  0
 11 25  2  0
 25 26  1  0
 26 27  1  0
 27 28  2  0
 28 29  1  0
 29 30  2  0
  8 31  1  0
 31 32  2  0
 32  6  1  0
 30  9  1  0
 24 12  2  0
 30 26  1  0
 23 18  1  0
M  END
$$$$
