QTWYHVZMLOYEJO-UHFFFAOYSA-N
     RDKit          3D

 28 30  0  0  0  0  0  0  0  0999 V2000
   -5.7650   -3.9000  -18.8480 O   0  0  0  0  0  0  0  0  0  0  0  0
   -5.7160   -4.8050  -19.6610 C   0  0  0  0  0  0  0  0  0  0  0  0
   -4.5860   -5.0860  -20.3310 O   0  0  0  0  0  0  0  0  0  0  0  0
   -6.8420   -5.6980  -20.0240 C   0  0  0  0  0  0  0  0  0  0  0  0
   -7.8910   -5.9670  -19.1410 C   0  0  0  0  0  0  0  0  0  0  0  0
   -8.9230   -6.8180  -19.5330 C   0  0  0  0  0  0  0  0  0  0  0  0
   -8.9120   -7.4000  -20.8060 C   0  0  0  0  0  0  0  0  0  0  0  0
   -7.8730   -7.1340  -21.7000 C   0  0  0  0  0  0  0  0  0  0  0  0
   -7.7870   -7.6850  -22.9970 N   0  0  0  0  0  0  0  0  0  0  0  0
   -8.8300   -8.1020  -23.8050 C   0  0  0  0  0  0  0  0  0  0  0  0
  -10.0280   -7.9620  -23.5740 O   0  0  0  0  0  0  0  0  0  0  0  0
   -8.4230   -8.7130  -25.1100 C   0  0  0  0  0  0  0  0  0  0  0  0
   -7.4080   -9.6880  -25.1290 C   0  0  0  0  0  0  0  0  0  0  0  0
   -6.9930  -10.2470  -26.3360 C   0  0  0  0  0  0  0  0  0  0  0  0
   -7.5930   -9.8460  -27.5240 C   0  0  0  0  0  0  0  0  0  0  0  0
   -8.6220   -8.8980  -27.5130 C   0  0  0  0  0  0  0  0  0  0  0  0
   -9.0600   -8.3270  -26.3140 C   0  0  0  0  0  0  0  0  0  0  0  0
  -10.1290   -7.3960  -26.2640 N   0  0  0  0  0  0  0  0  0  0  0  0
  -11.4690   -7.6140  -26.5100 C   0  0  0  0  0  0  0  0  0  0  0  0
  -11.9720   -8.6470  -26.9360 O   0  0  0  0  0  0  0  0  0  0  0  0
  -12.3600   -6.4410  -26.2640 C   0  0  0  0  0  0  0  0  0  0  0  0
  -13.4570   -6.5030  -25.3930 C   0  0  0  0  0  0  0  0  0  0  0  0
  -14.2650   -5.3770  -25.2010 C   0  0  0  0  0  0  0  0  0  0  0  0
  -13.9830   -4.1950  -25.8840 C   0  0  0  0  0  0  0  0  0  0  0  0
  -15.0790   -2.6770  -25.6210 Br  0  0  0  0  0  0  0  0  0  0  0  0
  -12.9050   -4.1260  -26.7640 C   0  0  0  0  0  0  0  0  0  0  0  0
  -12.0980   -5.2500  -26.9580 C   0  0  0  0  0  0  0  0  0  0  0  0
   -6.8370   -6.2830  -21.2990 C   0  0  0  0  0  0  0  0  0  0  0  0
  1  2  2  0
  2  3  1  0
  2  4  1  0
  4  5  2  0
  5  6  1  0
  6  7  2  0
  7  8  1  0
  8  9  1  0
  9 10  1  0
 10 11  2  0
 10 12  1  0
 12 13  2  0
 13 14  1  0
 14 15  2  0
 15 16  1  0
 16 17  2  0
 17 18  1  0
 18 19  1  0
 19 20  2  0
 19 21  1  0
 21 22  2  0
 22 23  1  0
 23 24  2  0
 24 25  1  0
 24 26  1  0
 26 27  2  0
  8 28  2  0
 28  4  1  0
 17 12  1  0
 27 21  1  0
M  END
$$$$
