QTWYHVZMLOYEJO-UHFFFAOYSA-N
     RDKit          3D

 28 30  0  0  0  0  0  0  0  0999 V2000
  -12.1230   -8.3820  -19.5350 O   0  0  0  0  0  0  0  0  0  0  0  0
  -11.1440   -7.9960  -18.9220 C   0  0  0  0  0  0  0  0  0  0  0  0
  -11.0820   -8.0690  -17.5810 O   0  0  0  0  0  0  0  0  0  0  0  0
   -9.9240   -7.4110  -19.5260 C   0  0  0  0  0  0  0  0  0  0  0  0
   -9.1240   -6.4910  -18.8420 C   0  0  0  0  0  0  0  0  0  0  0  0
   -7.9900   -5.9690  -19.4610 C   0  0  0  0  0  0  0  0  0  0  0  0
   -7.6490   -6.3650  -20.7590 C   0  0  0  0  0  0  0  0  0  0  0  0
   -8.4360   -7.2880  -21.4510 C   0  0  0  0  0  0  0  0  0  0  0  0
   -8.1630   -7.7330  -22.7630 N   0  0  0  0  0  0  0  0  0  0  0  0
   -9.0540   -8.2830  -23.6670 C   0  0  0  0  0  0  0  0  0  0  0  0
  -10.2700   -8.3790  -23.5220 O   0  0  0  0  0  0  0  0  0  0  0  0
   -8.4540   -8.7280  -24.9650 C   0  0  0  0  0  0  0  0  0  0  0  0
   -7.4140   -9.6770  -24.9560 C   0  0  0  0  0  0  0  0  0  0  0  0
   -6.8220  -10.0820  -26.1490 C   0  0  0  0  0  0  0  0  0  0  0  0
   -7.2690   -9.5530  -27.3550 C   0  0  0  0  0  0  0  0  0  0  0  0
   -8.3210   -8.6310  -27.3780 C   0  0  0  0  0  0  0  0  0  0  0  0
   -8.9360   -8.2130  -26.1930 C   0  0  0  0  0  0  0  0  0  0  0  0
  -10.0320   -7.3140  -26.1840 N   0  0  0  0  0  0  0  0  0  0  0  0
  -11.3510   -7.5660  -26.4970 C   0  0  0  0  0  0  0  0  0  0  0  0
  -11.8040   -8.6080  -26.9570 O   0  0  0  0  0  0  0  0  0  0  0  0
  -12.2860   -6.4210  -26.2810 C   0  0  0  0  0  0  0  0  0  0  0  0
  -13.3840   -6.5040  -25.4120 C   0  0  0  0  0  0  0  0  0  0  0  0
  -14.2340   -5.4040  -25.2500 C   0  0  0  0  0  0  0  0  0  0  0  0
  -13.9930   -4.2290  -25.9600 C   0  0  0  0  0  0  0  0  0  0  0  0
  -15.1450   -2.7470  -25.7360 Br  0  0  0  0  0  0  0  0  0  0  0  0
  -12.9150   -4.1410  -26.8380 C   0  0  0  0  0  0  0  0  0  0  0  0
  -12.0660   -5.2380  -27.0030 C   0  0  0  0  0  0  0  0  0  0  0  0
   -9.5770   -7.8050  -20.8270 C   0  0  0  0  0  0  0  0  0  0  0  0
  1  2  2  0
  2  3  1  0
  2  4  1  0
  4  5  2  0
  5  6  1  0
  6  7  2  0
  7  8  1  0
  8  9  1  0
  9 10  1  0
 10 11  2  0
 10 12  1  0
 12 13  2  0
 13 14  1  0
 14 15  2  0
 15 16  1  0
 16 17  2  0
 17 18  1  0
 18 19  1  0
 19 20  2  0
 19 21  1  0
 21 22  2  0
 22 23  1  0
 23 24  2  0
 24 25  1  0
 24 26  1  0
 26 27  2  0
  8 28  2  0
 28  4  1  0
 17 12  1  0
 27 21  1  0
M  END
$$$$
