LNSFUBYHUNTELH-UHFFFAOYSA-N
     RDKit          3D

 27 29  0  0  0  0  0  0  0  0999 V2000
  -20.7670  -41.1280   26.8810 C   0  0  0  0  0  0  0  0  0  0  0  0
  -20.0560  -41.9480   25.8030 C   0  0  0  0  0  0  0  0  0  0  0  0
  -20.1580  -41.2610   24.4380 C   0  0  0  0  0  0  0  0  0  0  0  0
  -18.6120  -42.2310   26.1770 C   0  0  0  0  0  0  0  0  0  0  0  0
  -17.6260  -42.4510   25.2080 C   0  0  0  0  0  0  0  0  0  0  0  0
  -16.3030  -42.7080   25.5810 C   0  0  0  0  0  0  0  0  0  0  0  0
  -15.9350  -42.7510   26.9300 C   0  0  0  0  0  0  0  0  0  0  0  0
  -14.5880  -43.0150   27.2220 N   0  0  0  0  0  0  0  0  0  0  0  0
  -13.8530  -44.1260   26.9230 C   0  0  0  0  0  0  0  0  0  0  0  0
  -14.2110  -45.1350   26.3340 O   0  0  0  0  0  0  0  0  0  0  0  0
  -12.5930  -43.9350   27.4010 O   0  0  0  0  0  0  0  0  0  0  0  0
  -11.9770  -42.7100   26.9780 C   0  0  0  0  0  0  0  0  0  0  0  0
  -10.8190  -42.3750   27.9250 C   0  0  2  0  0  0  0  0  0  0  0  0
   -9.4690  -42.4110   27.1950 C   0  0  0  0  0  0  0  0  0  0  0  0
   -8.3250  -42.1930   28.1770 C   0  0  0  0  0  0  0  0  0  0  0  0
   -8.4070  -43.1640   29.3560 C   0  0  0  0  0  0  0  0  0  0  0  0
   -9.7050  -43.0540   30.0420 N   0  0  0  0  0  0  0  0  0  0  0  0
   -9.7720  -43.9580   31.2090 C   0  0  0  0  0  0  0  0  0  0  0  0
   -9.8990  -43.2310   32.5320 C   0  0  0  0  0  0  0  0  0  0  0  0
  -11.1410  -42.7460   32.9630 C   0  0  0  0  0  0  0  0  0  0  0  0
  -11.2520  -42.0600   34.1750 C   0  0  0  0  0  0  0  0  0  0  0  0
  -10.1230  -41.8470   34.9640 C   0  0  0  0  0  0  0  0  0  0  0  0
   -8.8810  -42.3190   34.5420 C   0  0  0  0  0  0  0  0  0  0  0  0
   -8.7690  -43.0050   33.3330 C   0  0  0  0  0  0  0  0  0  0  0  0
  -10.8120  -43.3440   29.1180 C   0  0  0  0  0  0  0  0  0  0  0  0
  -16.9120  -42.5330   27.8990 C   0  0  0  0  0  0  0  0  0  0  0  0
  -18.2380  -42.2760   27.5270 C   0  0  0  0  0  0  0  0  0  0  0  0
  1  2  1  0
  2  3  1  0
  2  4  1  0
  4  5  2  0
  5  6  1  0
  6  7  2  0
  7  8  1  0
  8  9  1  0
  9 10  2  0
  9 11  1  0
 11 12  1  0
 13 12  1  6
 13 14  1  0
 14 15  1  0
 15 16  1  0
 16 17  1  0
 17 18  1  0
 18 19  1  0
 19 20  2  0
 20 21  1  0
 21 22  2  0
 22 23  1  0
 23 24  2  0
 17 25  1  0
  7 26  1  0
 26 27  2  0
 27  4  1  0
 25 13  1  0
 24 19  1  0
M  END
$$$$
