UYSGAWMQMRAGJH-VLXSWZPNSA-N
     RDKit          3D

 26 29  0  0  0  0  0  0  0  0999 V2000
   -3.2030   27.3610  -27.3330 C   0  0  0  0  0  0  0  0  0  0  0  0
   -3.7140   26.9180  -28.6260 N   0  0  0  0  0  0  0  0  0  0  0  0
   -4.1530   27.9330  -29.5020 C   0  0  0  0  0  0  0  0  0  0  0  0
   -3.8380   29.2210  -29.1780 N   0  0  0  0  0  0  0  0  0  0  0  0
   -4.2480   30.2300  -29.9690 C   0  0  0  0  0  0  0  0  0  0  0  0
   -4.9560   30.1530  -31.1020 N   0  0  0  0  0  0  0  0  0  0  0  0
   -5.2320   28.8800  -31.4140 C   0  0  0  0  0  0  0  0  0  0  0  0
   -5.9240   28.5050  -32.5320 N   0  0  0  0  0  0  0  0  0  0  0  0
   -6.0170   27.1400  -32.5820 C   0  0  0  0  0  0  0  0  0  0  0  0
   -5.3740   26.6400  -31.4690 C   0  0  0  0  0  0  0  0  0  0  0  0
   -4.8820   27.7400  -30.7020 C   0  0  0  0  0  0  0  0  0  0  0  0
   -3.3470   25.6010  -29.0860 C   0  0  2  0  0  0  0  0  0  0  0  0
   -4.0790   24.4440  -28.3560 C   0  0  0  0  0  0  0  0  0  0  0  0
   -2.7380   23.6760  -28.3510 C   0  0  1  0  0  0  0  0  0  0  0  0
   -2.5200   22.7070  -29.4770 N   0  0  0  0  0  0  0  0  0  0  0  0
   -3.1290   21.1470  -29.4460 S   0  0  0  0  0  0  0  0  0  0  0  0
   -2.3090   20.3500  -30.3250 O   0  0  0  0  0  0  0  0  0  0  0  0
   -3.4060   20.7610  -28.0850 O   0  0  0  0  0  0  0  0  0  0  0  0
   -4.5950   21.4340  -30.2180 N   0  0  0  0  0  0  0  0  0  0  0  0
   -5.1760   20.2940  -30.9800 C   0  0  0  0  0  0  0  0  0  0  0  0
   -5.9240   20.9470  -32.1320 C   0  0  0  0  0  0  0  0  0  0  0  0
   -5.0180   22.1160  -32.4810 C   0  0  1  0  0  0  0  0  0  0  0  0
   -5.6950   23.1390  -33.2780 C   0  0  0  0  0  0  0  0  0  0  0  0
   -6.2330   23.9490  -33.9080 N   0  0  0  0  0  0  0  0  0  0  0  0
   -4.6120   22.6350  -31.1080 C   0  0  0  0  0  0  0  0  0  0  0  0
   -2.0420   25.0520  -28.4550 C   0  0  0  0  0  0  0  0  0  0  0  0
  1  2  1  0
  2  3  1  0
  3  4  2  0
  4  5  1  0
  5  6  2  0
  6  7  1  0
  7  8  1  0
  8  9  1  0
  9 10  2  0
 10 11  1  0
 12  2  1  6
 12 13  1  0
 13 14  1  0
 14 15  1  1
 15 16  1  0
 16 17  2  0
 16 18  2  0
 16 19  1  0
 19 20  1  0
 20 21  1  0
 21 22  1  0
 22 23  1  6
 23 24  3  0
 22 25  1  0
 14 26  1  0
 11  3  1  0
 26 12  1  0
 11  7  2  0
 25 19  1  0
M  END
$$$$
