OSNPLDLPFDTALJ-UHFFFAOYSA-N
     RDKit          3D

 27 31  0  0  0  0  0  0  0  0999 V2000
   14.7730   33.9790   16.3390 C   0  0  0  0  0  0  0  0  0  0  0  0
   15.8540   34.8890   16.8010 C   0  0  0  0  0  0  0  0  0  0  0  0
   15.7860   35.6930   17.9780 C   0  0  0  0  0  0  0  0  0  0  0  0
   16.9550   36.4100   18.0610 C   0  0  0  0  0  0  0  0  0  0  0  0
   17.7320   36.0830   16.9870 N   0  0  0  0  0  0  0  0  0  0  0  0
   18.9370   36.6050   16.7240 N   0  0  0  0  0  0  0  0  0  0  0  0
   19.4760   36.1370   15.6450 C   0  0  0  0  0  0  0  0  0  0  0  0
   18.9500   35.1980   14.8010 N   0  0  0  0  0  0  0  0  0  0  0  0
   17.7810   34.6770   15.0410 C   0  0  0  0  0  0  0  0  0  0  0  0
   17.2320   33.7000   14.2360 N   0  0  0  0  0  0  0  0  0  0  0  0
   17.2050   33.5840   12.8310 C   0  0  0  0  0  0  0  0  0  0  0  0
   17.8550   32.5690   12.1210 C   0  0  0  0  0  0  0  0  0  0  0  0
   17.7930   32.4680   10.7230 C   0  0  0  0  0  0  0  0  0  0  0  0
   17.0400   33.4280   10.0380 C   0  0  0  0  0  0  0  0  0  0  0  0
   16.3730   34.4510   10.7020 C   0  0  0  0  0  0  0  0  0  0  0  0
   15.7410   35.1890    9.6780 C   0  0  0  0  0  0  0  0  0  0  0  0
   15.9740   34.6920    8.4610 N   0  0  0  0  0  0  0  0  0  0  0  0
   16.7740   33.6280    8.7030 N   0  0  0  0  0  0  0  0  0  0  0  0
   17.2290   32.8120    7.5850 C   0  0  0  0  0  0  0  0  0  0  0  0
   16.5520   31.4710    7.5550 C   0  0  0  0  0  0  0  0  0  0  0  0
   15.1620   31.3480    7.6470 C   0  0  0  0  0  0  0  0  0  0  0  0
   14.5760   30.0870    7.6020 C   0  0  0  0  0  0  0  0  0  0  0  0
   15.4010   28.9840    7.4600 C   0  0  0  0  0  0  0  0  0  0  0  0
   16.7440   29.0620    7.3610 N   0  0  0  0  0  0  0  0  0  0  0  0
   17.2900   30.2980    7.4120 C   0  0  0  0  0  0  0  0  0  0  0  0
   16.4530   34.5300   12.1060 C   0  0  0  0  0  0  0  0  0  0  0  0
   17.0920   35.1490   16.2210 C   0  0  0  0  0  0  0  0  0  0  0  0
  1  2  1  0
  2  3  1  0
  3  4  2  0
  4  5  1  0
  5  6  1  0
  6  7  2  0
  7  8  1  0
  8  9  2  0
  9 10  1  0
 10 11  1  0
 11 12  2  0
 12 13  1  0
 13 14  2  0
 14 15  1  0
 15 16  1  0
 16 17  2  0
 17 18  1  0
 18 19  1  0
 19 20  1  0
 20 21  2  0
 21 22  1  0
 22 23  2  0
 23 24  1  0
 24 25  2  0
 15 26  2  0
  9 27  1  0
 27  2  2  0
 27  5  1  0
 26 11  1  0
 18 14  1  0
 25 20  1  0
M  END
$$$$
