SRUYMJRFVGLQDV-UHFFFAOYSA-N
     RDKit          3D

 44 50  0  0  0  0  0  0  0  0999 V2000
   13.9190    2.4490   30.3560 O   0  0  0  0  0  0  0  0  0  0  0  0
   13.1250    1.5670   30.0540 C   0  0  0  0  0  0  0  0  0  0  0  0
   13.3490    0.5790   29.1080 N   0  0  0  0  0  0  0  0  0  0  0  0
   14.4770    0.4240   28.2730 C   0  0  0  0  0  0  0  0  0  0  0  0
   15.2600   -0.7280   28.2180 C   0  0  0  0  0  0  0  0  0  0  0  0
   16.3780   -0.7870   27.3810 C   0  0  0  0  0  0  0  0  0  0  0  0
   16.7180    0.3040   26.5830 C   0  0  0  0  0  0  0  0  0  0  0  0
   15.9300    1.4590   26.6010 C   0  0  0  0  0  0  0  0  0  0  0  0
   16.2450    2.6120   25.7740 C   0  0  0  0  0  0  0  0  0  0  0  0
   17.5080    2.7760   25.2240 N   0  0  0  0  0  0  0  0  0  0  0  0
   17.3860    3.8690   24.5280 C   0  0  0  0  0  0  0  0  0  0  0  0
   18.4550    4.7910   23.5170 S   0  0  0  0  0  0  0  0  0  0  0  0
   17.1430    5.9480   23.2450 C   0  0  0  0  0  0  0  0  0  0  0  0
   16.0120    5.6170   23.8910 C   0  0  0  0  0  0  0  0  0  0  0  0
   16.1540    4.4450   24.6090 N   0  0  0  0  0  0  0  0  0  0  0  0
   15.3870    3.6690   25.4450 C   0  0  0  0  0  0  0  0  0  0  0  0
   14.0280    4.0080   25.8360 C   0  0  0  0  0  0  0  0  0  0  0  0
   13.6080    3.9690   27.1440 C   0  0  0  0  0  0  0  0  0  0  0  0
   12.2950    4.3070   27.3430 C   0  0  0  0  0  0  0  0  0  0  0  0
   11.4610    4.6560   26.3460 N   0  0  0  0  0  0  0  0  0  0  0  0
   11.9560    4.6680   25.0980 C   0  0  0  0  0  0  0  0  0  0  0  0
   11.0520    5.0420   24.1090 N   0  0  0  0  0  0  0  0  0  0  0  0
   10.7710    6.2440   23.4480 C   0  0  0  0  0  0  0  0  0  0  0  0
   11.5730    6.7850   22.4430 C   0  0  0  0  0  0  0  0  0  0  0  0
   11.2420    8.0000   21.8430 C   0  0  0  0  0  0  0  0  0  0  0  0
   10.1000    8.6950   22.2430 C   0  0  0  0  0  0  0  0  0  0  0  0
    9.2630    8.1890   23.2470 C   0  0  0  0  0  0  0  0  0  0  0  0
    8.0950    8.9000   23.6430 N   0  0  0  0  0  0  0  0  0  0  0  0
    6.9020    8.9500   22.8310 C   0  0  0  0  0  0  0  0  0  0  0  0
    6.0990   10.0950   23.4130 C   0  0  0  0  0  0  0  0  0  0  0  0
    6.4670   10.0660   24.8810 C   0  0  0  0  0  0  0  0  0  0  0  0
    7.8910    9.5600   24.8660 C   0  0  0  0  0  0  0  0  0  0  0  0
    8.6480    9.6930   25.8150 O   0  0  0  0  0  0  0  0  0  0  0  0
    9.6230    6.9660   23.8340 C   0  0  0  0  0  0  0  0  0  0  0  0
   13.2290    4.3590   24.8140 N   0  0  0  0  0  0  0  0  0  0  0  0
   14.8230    1.5160   27.4630 C   0  0  0  0  0  0  0  0  0  0  0  0
   11.8100    1.5190   30.7540 C   0  0  0  0  0  0  0  0  0  0  0  0
   10.6300    1.7350   30.0360 C   0  0  0  0  0  0  0  0  0  0  0  0
   10.6410    1.9450   28.7120 F   0  0  0  0  0  0  0  0  0  0  0  0
    9.3820    1.7140   30.6670 C   0  0  0  0  0  0  0  0  0  0  0  0
    9.2960    1.4770   32.0380 C   0  0  0  0  0  0  0  0  0  0  0  0
   10.4600    1.2570   32.7690 C   0  0  0  0  0  0  0  0  0  0  0  0
   11.7000    1.2790   32.1260 C   0  0  0  0  0  0  0  0  0  0  0  0
   12.7910    1.0590   32.8770 F   0  0  0  0  0  0  0  0  0  0  0  0
  1  2  2  0
  2  3  1  0
  3  4  1  0
  4  5  2  0
  5  6  1  0
  6  7  2  0
  7  8  1  0
  8  9  1  0
  9 10  1  0
 10 11  2  0
 11 12  1  0
 12 13  1  0
 13 14  2  0
 14 15  1  0
 15 16  1  0
 16 17  1  0
 17 18  2  0
 18 19  1  0
 19 20  2  0
 20 21  1  0
 21 22  1  0
 22 23  1  0
 23 24  2  0
 24 25  1  0
 25 26  2  0
 26 27  1  0
 27 28  1  0
 28 29  1  0
 29 30  1  0
 30 31  1  0
 31 32  1  0
 32 33  2  0
 27 34  2  0
 21 35  2  0
  8 36  2  0
  2 37  1  0
 37 38  2  0
 38 39  1  0
 38 40  1  0
 40 41  2  0
 41 42  1  0
 42 43  2  0
 43 44  1  0
 36  4  1  0
 43 37  1  0
 16  9  2  0
 35 17  1  0
 15 11  1  0
 34 23  1  0
 32 28  1  0
M  END
$$$$
