LWORINFAHRPALE-UHFFFAOYSA-N
     RDKit          3D

 41 46  0  0  0  0  0  0  0  0999 V2000
   11.6380    2.5350   30.4190 O   0  0  0  0  0  0  0  0  0  0  0  0
   11.3760    1.3970   30.0510 C   0  0  0  0  0  0  0  0  0  0  0  0
   11.8820    0.7570   28.9360 N   0  0  0  0  0  0  0  0  0  0  0  0
   12.8380    1.2450   28.0230 C   0  0  0  0  0  0  0  0  0  0  0  0
   14.1990    0.9490   28.0830 C   0  0  0  0  0  0  0  0  0  0  0  0
   15.0850    1.4680   27.1290 C   0  0  0  0  0  0  0  0  0  0  0  0
   14.6300    2.2920   26.0920 C   0  0  0  0  0  0  0  0  0  0  0  0
   15.5810    2.8280   25.1080 C   0  0  0  0  0  0  0  0  0  0  0  0
   15.3350    3.6860   24.0490 C   0  0  0  0  0  0  0  0  0  0  0  0
   16.5180    4.0320   23.3060 C   0  0  0  0  0  0  0  0  0  0  0  0
   16.7510    4.8570   22.1800 C   0  0  0  0  0  0  0  0  0  0  0  0
   15.6930    5.5190   21.5360 N   0  0  0  0  0  0  0  0  0  0  0  0
   14.7050    6.4040   22.0050 C   0  0  0  0  0  0  0  0  0  0  0  0
   13.4390    6.5350   21.4270 C   0  0  0  0  0  0  0  0  0  0  0  0
   12.4880    7.4220   21.9460 C   0  0  0  0  0  0  0  0  0  0  0  0
   12.7840    8.1820   23.0790 C   0  0  0  0  0  0  0  0  0  0  0  0
   11.8830    9.0920   23.5840 O   0  0  0  0  0  0  0  0  0  0  0  0
   10.6800    8.6000   24.0380 C   0  0  0  0  0  0  0  0  0  0  0  0
   10.6910    7.3190   24.5890 C   0  0  0  0  0  0  0  0  0  0  0  0
    9.5030    6.7480   25.0440 C   0  0  0  0  0  0  0  0  0  0  0  0
    8.3030    7.4520   24.9320 C   0  0  0  0  0  0  0  0  0  0  0  0
    8.2750    8.7290   24.3470 C   0  0  0  0  0  0  0  0  0  0  0  0
    6.9800    9.4940   24.2270 C   0  0  0  0  0  0  0  0  0  0  0  0
    7.0340   10.4560   23.2640 F   0  0  0  0  0  0  0  0  0  0  0  0
    6.6270   10.1360   25.3760 F   0  0  0  0  0  0  0  0  0  0  0  0
    5.9210    8.7020   23.9050 F   0  0  0  0  0  0  0  0  0  0  0  0
    9.4780    9.3000   23.9010 C   0  0  0  0  0  0  0  0  0  0  0  0
   14.0450    8.0750   23.6630 C   0  0  0  0  0  0  0  0  0  0  0  0
   14.4750    9.0060   25.0520 Cl  0  0  0  0  0  0  0  0  0  0  0  0
   14.9910    7.1880   23.1360 C   0  0  0  0  0  0  0  0  0  0  0  0
   18.0240    4.9640   21.7310 N   0  0  0  0  0  0  0  0  0  0  0  0
   19.0050    4.2970   22.3590 C   0  0  0  0  0  0  0  0  0  0  0  0
   18.8930    3.5010   23.4220 N   0  0  0  0  0  0  0  0  0  0  0  0
   17.6260    3.4080   23.8530 C   0  0  0  0  0  0  0  0  0  0  0  0
   17.2490    2.4470   25.2050 S   0  0  0  0  0  0  0  0  0  0  0  0
   13.2630    2.5910   26.0390 C   0  0  0  0  0  0  0  0  0  0  0  0
   12.3780    2.0700   26.9910 C   0  0  0  0  0  0  0  0  0  0  0  0
   10.4970    0.5790   30.7410 N   0  0  0  0  0  0  0  0  0  0  0  0
    9.8100    1.0160   31.9140 C   0  0  0  0  0  0  0  0  0  0  0  0
    8.6900    2.0150   31.8150 C   0  0  0  0  0  0  0  0  0  0  0  0
    8.3920    0.5900   32.1790 C   0  0  0  0  0  0  0  0  0  0  0  0
  1  2  2  0
  2  3  1  0
  3  4  1  0
  4  5  2  0
  5  6  1  0
  6  7  2  0
  7  8  1  0
  8  9  2  0
  9 10  1  0
 10 11  2  0
 11 12  1  0
 12 13  1  0
 13 14  2  0
 14 15  1  0
 15 16  2  0
 16 17  1  0
 17 18  1  0
 18 19  2  0
 19 20  1  0
 20 21  2  0
 21 22  1  0
 22 23  1  0
 23 24  1  0
 23 25  1  0
 23 26  1  0
 22 27  2  0
 16 28  1  0
 28 29  1  0
 28 30  2  0
 11 31  1  0
 31 32  2  0
 32 33  1  0
 33 34  2  0
 34 35  1  0
  7 36  1  0
 36 37  2  0
  2 38  1  0
 38 39  1  0
 39 40  1  0
 40 41  1  0
 37  4  1  0
 41 39  1  0
 35  8  1  0
 34 10  1  0
 30 13  1  0
 27 18  1  0
M  END
$$$$
