QAIZMIBCSNGQKN-UHFFFAOYSA-N
     RDKit          3D

 39 42  0  0  0  0  0  0  0  0999 V2000
   -6.4530   20.0020   26.2220 C   0  0  0  0  0  0  0  0  0  0  0  0
   -6.7140   18.7440   25.3920 C   0  0  0  0  0  0  0  0  0  0  0  0
   -6.9660   17.5500   26.3160 C   0  0  0  0  0  0  0  0  0  0  0  0
   -5.5320   18.4850   24.4440 C   0  0  0  0  0  0  0  0  0  0  0  0
   -5.5680   17.1590   23.8590 N   0  0  0  0  0  0  0  0  0  0  0  0
   -4.4290   16.3920   23.7370 C   0  0  0  0  0  0  0  0  0  0  0  0
   -3.3160   16.7690   24.0820 O   0  0  0  0  0  0  0  0  0  0  0  0
   -4.5960   15.0500   23.1170 C   0  0  0  0  0  0  0  0  0  0  0  0
   -5.5550   14.9010   22.1130 C   0  0  0  0  0  0  0  0  0  0  0  0
   -5.7440   13.6620   21.4970 C   0  0  0  0  0  0  0  0  0  0  0  0
   -4.9730   12.5420   21.8600 C   0  0  0  0  0  0  0  0  0  0  0  0
   -5.1860   11.2800   21.1330 C   0  0  0  0  0  0  0  0  0  0  0  0
   -6.1750   10.3870   21.5780 C   0  0  0  0  0  0  0  0  0  0  0  0
   -6.3690    9.1510   20.9480 C   0  0  0  0  0  0  0  0  0  0  0  0
   -5.5760    8.7650   19.8600 C   0  0  0  0  0  0  0  0  0  0  0  0
   -5.7570    7.4750   19.2110 C   0  0  0  0  0  0  0  0  0  0  0  0
   -6.8900    6.6130   19.1830 C   0  0  0  0  0  0  0  0  0  0  0  0
   -6.5300    5.5160   18.4360 C   0  0  0  0  0  0  0  0  0  0  0  0
   -5.2480    5.6340   18.0080 O   0  0  0  0  0  0  0  0  0  0  0  0
   -4.7840    6.8200   18.4810 C   0  0  0  0  0  0  0  0  0  0  0  0
   -4.5840    9.6420   19.4100 C   0  0  0  0  0  0  0  0  0  0  0  0
   -4.4040   10.8860   20.0330 C   0  0  0  0  0  0  0  0  0  0  0  0
   -3.3550   11.7710   19.4780 C   0  0  0  0  0  0  0  0  0  0  0  0
   -2.2140   11.6450   19.8990 O   0  0  0  0  0  0  0  0  0  0  0  0
   -3.8240   12.6310   18.5090 N   0  0  0  0  0  0  0  0  0  0  0  0
   -3.1000   13.6140   17.8100 C   0  0  0  0  0  0  0  0  0  0  0  0
   -2.9330   14.8530   18.4420 C   0  0  0  0  0  0  0  0  0  0  0  0
   -2.2230   15.8840   17.8170 C   0  0  0  0  0  0  0  0  0  0  0  0
   -1.6770   15.6800   16.5470 C   0  0  0  0  0  0  0  0  0  0  0  0
   -0.9170   16.7670   15.8760 C   0  0  0  0  0  0  0  0  0  0  0  0
   -0.9770   16.9650   14.5970 N   0  0  0  0  0  0  0  0  0  0  0  0
   -0.1320   17.6010   16.6000 N   0  0  0  0  0  0  0  0  0  0  0  0
   -1.8360   14.4470   15.9120 C   0  0  0  0  0  0  0  0  0  0  0  0
   -2.5470   13.4170   16.5430 C   0  0  0  0  0  0  0  0  0  0  0  0
   -3.9980   12.7070   22.8680 C   0  0  0  0  0  0  0  0  0  0  0  0
   -3.1800   11.5610   23.3280 C   0  0  0  0  0  0  0  0  0  0  0  0
   -3.5060   10.7290   24.1540 O   0  0  0  0  0  0  0  0  0  0  0  0
   -1.9840   11.5320   22.7190 O   0  0  0  0  0  0  0  0  0  0  0  0
   -3.8100   13.9550   23.4890 C   0  0  0  0  0  0  0  0  0  0  0  0
  1  2  1  0
  2  3  1  0
  2  4  1  0
  4  5  1  0
  5  6  1  0
  6  7  2  0
  6  8  1  0
  8  9  2  0
  9 10  1  0
 10 11  2  0
 11 12  1  0
 12 13  2  0
 13 14  1  0
 14 15  2  0
 15 16  1  0
 16 17  1  0
 17 18  2  0
 18 19  1  0
 19 20  1  0
 15 21  1  0
 21 22  2  0
 22 23  1  0
 23 24  2  0
 23 25  1  0
 25 26  1  0
 26 27  2  0
 27 28  1  0
 28 29  2  0
 29 30  1  0
 30 31  2  0
 30 32  1  0
 29 33  1  0
 33 34  2  0
 11 35  1  0
 35 36  1  0
 36 37  2  0
 36 38  1  0
 35 39  2  0
 39  8  1  0
 22 12  1  0
 34 26  1  0
 20 16  2  0
M  END
$$$$
