PKZMHAUKZNLATM-UHFFFAOYSA-N
     RDKit          3D

 33 36  0  0  0  0  0  0  0  0999 V2000
   -4.6500   25.5580  -32.4130 C   0  0  0  0  0  0  0  0  0  0  0  0
   -3.6550   24.9230  -31.4530 C   0  0  0  0  0  0  0  0  0  0  0  0
   -4.1300   23.5740  -30.9510 C   0  0  0  0  0  0  0  0  0  0  0  0
   -4.8300   22.7470  -31.8480 C   0  0  0  0  0  0  0  0  0  0  0  0
   -5.3110   21.5130  -31.4310 C   0  0  0  0  0  0  0  0  0  0  0  0
   -5.9880   20.6900  -32.2810 O   0  0  0  0  0  0  0  0  0  0  0  0
   -5.1210   21.0800  -30.1270 C   0  0  0  0  0  0  0  0  0  0  0  0
   -4.4380   21.8870  -29.2050 C   0  0  0  0  0  0  0  0  0  0  0  0
   -4.2710   21.3890  -27.7920 C   0  0  0  0  0  0  0  0  0  0  0  0
   -3.9190   23.1450  -29.6120 C   0  0  0  0  0  0  0  0  0  0  0  0
   -3.1720   23.9840  -28.6580 C   0  0  0  0  0  0  0  0  0  0  0  0
   -1.9990   23.5200  -28.0680 C   0  0  0  0  0  0  0  0  0  0  0  0
   -1.3900   24.4170  -27.1990 C   0  0  0  0  0  0  0  0  0  0  0  0
   -0.2490   24.3340  -26.4470 N   0  0  0  0  0  0  0  0  0  0  0  0
    0.0140   25.4350  -25.7230 N   0  0  0  0  0  0  0  0  0  0  0  0
   -0.9970   26.2540  -26.0330 C   0  0  0  0  0  0  0  0  0  0  0  0
   -1.9140   25.6800  -26.9440 C   0  0  0  0  0  0  0  0  0  0  0  0
   -3.1070   26.0840  -27.5730 C   0  0  0  0  0  0  0  0  0  0  0  0
   -3.6670   27.3220  -27.3520 N   0  0  0  0  0  0  0  0  0  0  0  0
   -2.9820   28.5070  -27.8040 C   0  0  0  0  0  0  0  0  0  0  0  0
   -3.7390   29.1240  -28.9600 C   0  0  0  0  0  0  0  0  0  0  0  0
   -4.2560   28.2740  -29.9560 C   0  0  0  0  0  0  0  0  0  0  0  0
   -4.9460   28.7900  -31.0530 C   0  0  0  0  0  0  0  0  0  0  0  0
   -5.1350   30.1640  -31.1710 C   0  0  0  0  0  0  0  0  0  0  0  0
   -4.6470   31.0190  -30.1820 C   0  0  0  0  0  0  0  0  0  0  0  0
   -3.9600   30.5070  -29.0730 C   0  0  0  0  0  0  0  0  0  0  0  0
   -3.5190   31.3990  -28.0370 N   0  0  0  0  0  0  0  0  0  0  0  0
   -2.3270   32.2200  -28.3060 C   0  0  0  0  0  0  0  0  0  0  0  0
   -4.6910   32.0200  -26.9760 S   0  0  0  0  0  0  0  0  0  0  0  0
   -3.7240   33.0040  -25.8480 C   0  0  0  0  0  0  0  0  0  0  0  0
   -5.2260   30.9100  -26.2140 O   0  0  0  0  0  0  0  0  0  0  0  0
   -5.5750   32.9160  -27.6950 O   0  0  0  0  0  0  0  0  0  0  0  0
   -3.7080   25.2070  -28.4230 N   0  0  0  0  0  0  0  0  0  0  0  0
  1  2  1  0
  2  3  1  0
  3  4  2  0
  4  5  1  0
  5  6  1  0
  5  7  2  0
  7  8  1  0
  8  9  1  0
  8 10  2  0
 10 11  1  0
 11 12  2  0
 12 13  1  0
 13 14  1  0
 14 15  1  0
 15 16  2  0
 16 17  1  0
 17 18  1  0
 18 19  1  0
 19 20  1  0
 20 21  1  0
 21 22  2  0
 22 23  1  0
 23 24  2  0
 24 25  1  0
 25 26  2  0
 26 27  1  0
 27 28  1  0
 27 29  1  0
 29 30  1  0
 29 31  2  0
 29 32  2  0
 18 33  2  0
 10  3  1  0
 33 11  1  0
 17 13  2  0
 26 21  1  0
M  END
$$$$
