SKBWQUPLWQUWPH-WGSAOQKQSA-N
     RDKit          3D

 41 47  0  0  0  0  0  0  0  0999 V2000
   15.8900   28.5920    7.3830 C   0  0  0  0  0  0  0  0  0  0  0  0
   15.8960   29.8290    6.6030 N   0  0  0  0  0  0  0  0  0  0  0  0
   17.2570   30.3880    6.4740 C   0  0  0  0  0  0  0  0  0  0  0  0
   17.8150   31.0560    7.7550 C   0  0  0  0  0  0  0  0  0  0  0  0
   16.9030   32.0770    8.3120 N   0  0  0  0  0  0  0  0  0  0  0  0
   17.4750   32.7680    9.4830 C   0  0  2  0  0  0  0  0  0  0  0  0
   18.4200   31.9180   10.3560 C   0  0  0  0  0  0  0  0  0  0  0  0
   18.9960   32.7340   11.5150 C   0  0  0  0  0  0  0  0  0  0  0  0
   17.8820   33.3400   12.3820 C   0  0  1  0  0  0  0  0  0  0  0  0
   18.4430   34.0570   13.5220 N   0  0  0  0  0  0  0  0  0  0  0  0
   19.7750   34.2390   13.6440 N   0  0  0  0  0  0  0  0  0  0  0  0
   19.9080   34.9510   14.7770 C   0  0  0  0  0  0  0  0  0  0  0  0
   21.2240   35.4200   15.1950 C   0  0  0  0  0  0  0  0  0  0  0  0
   21.7800   34.9970   16.4060 C   0  0  0  0  0  0  0  0  0  0  0  0
   23.0420   35.4560   16.8070 C   0  0  0  0  0  0  0  0  0  0  0  0
   23.7780   36.3480   16.0120 C   0  0  0  0  0  0  0  0  0  0  0  0
   25.0080   36.8140   16.5070 N   0  0  0  0  0  0  0  0  0  0  0  0
   25.2340   37.4590   17.6620 C   0  0  0  0  0  0  0  0  0  0  0  0
   26.0700   37.2140   18.6480 N   0  0  0  0  0  0  0  0  0  0  0  0
   25.8860   38.2580   19.5140 C   0  0  0  0  0  0  0  0  0  0  0  0
   26.4980   38.5550   20.7410 C   0  0  0  0  0  0  0  0  0  0  0  0
   26.1110   39.7250   21.4110 C   0  0  0  0  0  0  0  0  0  0  0  0
   25.1370   40.5760   20.8740 C   0  0  0  0  0  0  0  0  0  0  0  0
   24.5210   40.2850   19.6490 C   0  0  0  0  0  0  0  0  0  0  0  0
   23.3340   41.3270   18.9850 Cl  0  0  0  0  0  0  0  0  0  0  0  0
   24.9310   39.1230   19.0080 C   0  0  0  0  0  0  0  0  0  0  0  0
   24.5140   38.6160   17.8090 O   0  0  0  0  0  0  0  0  0  0  0  0
   23.1950   36.7690   14.8060 C   0  0  0  0  0  0  0  0  0  0  0  0
   23.8640   37.5640   13.9610 F   0  0  0  0  0  0  0  0  0  0  0  0
   21.9390   36.3160   14.3980 C   0  0  0  0  0  0  0  0  0  0  0  0
   18.6530   35.1430   15.4270 C   0  0  0  0  0  0  0  0  0  0  0  0
   18.1520   35.6950   16.6130 C   0  0  0  0  0  0  0  0  0  0  0  0
   18.9210   36.2340   17.6170 N   0  0  0  0  0  0  0  0  0  0  0  0
   16.8170   35.6720   16.8220 N   0  0  0  0  0  0  0  0  0  0  0  0
   16.0260   35.1060   15.8900 C   0  0  0  0  0  0  0  0  0  0  0  0
   16.3920   34.5260   14.7360 N   0  0  0  0  0  0  0  0  0  0  0  0
   17.7270   34.5750   14.5680 C   0  0  0  0  0  0  0  0  0  0  0  0
   16.9350   34.1950   11.5210 C   0  0  0  0  0  0  0  0  0  0  0  0
   16.3600   33.3930   10.3500 C   0  0  0  0  0  0  0  0  0  0  0  0
   15.5550   31.5080    8.4960 C   0  0  0  0  0  0  0  0  0  0  0  0
   15.0150   30.8540    7.1990 C   0  0  0  0  0  0  0  0  0  0  0  0
  1  2  1  0
  2  3  1  0
  3  4  1  0
  4  5  1  0
  6  5  1  1
  6  7  1  0
  7  8  1  0
  8  9  1  0
  9 10  1  6
 10 11  1  0
 11 12  2  0
 12 13  1  0
 13 14  2  0
 14 15  1  0
 15 16  2  0
 16 17  1  0
 17 18  1  0
 18 19  2  0
 19 20  1  0
 20 21  2  0
 21 22  1  0
 22 23  2  0
 23 24  1  0
 24 25  1  0
 24 26  2  0
 26 27  1  0
 16 28  1  0
 28 29  1  0
 28 30  2  0
 12 31  1  0
 31 32  2  0
 32 33  1  0
 32 34  1  0
 34 35  2  0
 35 36  1  0
 36 37  2  0
  9 38  1  0
 38 39  1  0
  5 40  1  0
 40 41  1  0
 41  2  1  0
 39  6  1  0
 37 10  1  0
 30 13  1  0
 37 31  1  0
 27 18  1  0
 26 20  1  0
M  END
$$$$
