HCRQGSALPJKLLR-NTKDMRAZSA-N
     RDKit          3D

 42 46  0  0  0  0  0  0  0  0999 V2000
   13.3260  -28.5740   25.8340 C   0  0  0  0  0  0  0  0  0  0  0  0
   12.7350  -27.2270   25.4260 C   0  0  0  0  0  0  0  0  0  0  0  0
   12.0630  -26.4630   26.5820 C   0  0  2  0  0  0  0  0  0  0  0  0
   10.6150  -26.0830   26.1230 C   0  0  0  0  0  0  0  0  0  0  0  0
    9.6230  -26.4160   26.7680 O   0  0  0  0  0  0  0  0  0  0  0  0
   10.6210  -25.3900   24.9260 N   0  0  0  0  0  0  0  0  0  0  0  0
    9.5560  -24.8870   24.1630 C   0  0  0  0  0  0  0  0  0  0  0  0
    9.6590  -23.5510   23.7390 C   0  0  0  0  0  0  0  0  0  0  0  0
    8.6610  -22.9360   22.9860 C   0  0  0  0  0  0  0  0  0  0  0  0
    7.5110  -23.6400   22.6310 C   0  0  0  0  0  0  0  0  0  0  0  0
    7.3680  -24.9820   23.0360 C   0  0  0  0  0  0  0  0  0  0  0  0
    6.3330  -25.9530   22.8640 C   0  0  0  0  0  0  0  0  0  0  0  0
    5.0550  -25.8120   22.1880 C   0  0  0  0  0  0  0  0  0  0  0  0
    4.8560  -24.6000   21.6250 N   0  0  0  0  0  0  0  0  0  0  0  0
    3.6950  -24.3890   20.9980 C   0  0  0  0  0  0  0  0  0  0  0  0
    3.4070  -23.1730   20.3930 N   0  0  0  0  0  0  0  0  0  0  0  0
    4.1240  -21.9790   20.2350 C   0  0  0  0  0  0  0  0  0  0  0  0
    5.4430  -21.9220   19.7680 C   0  0  0  0  0  0  0  0  0  0  0  0
    6.1170  -20.7000   19.6420 C   0  0  0  0  0  0  0  0  0  0  0  0
    5.4820  -19.5100   19.9900 C   0  0  0  0  0  0  0  0  0  0  0  0
    4.1780  -19.5560   20.4840 C   0  0  0  0  0  0  0  0  0  0  0  0
    3.3560  -18.0750   20.9740 S   0  0  0  0  0  0  0  0  0  0  0  0
    4.3890  -16.7600   20.3770 C   0  0  0  0  0  0  0  0  0  0  0  0
    2.1130  -18.0080   20.2240 O   0  0  0  0  0  0  0  0  0  0  0  0
    3.3400  -18.0390   22.4230 O   0  0  0  0  0  0  0  0  0  0  0  0
    3.5120  -20.7690   20.6030 C   0  0  0  0  0  0  0  0  0  0  0  0
    2.2650  -20.8090   21.1070 F   0  0  0  0  0  0  0  0  0  0  0  0
    2.7220  -25.3100   20.9220 N   0  0  0  0  0  0  0  0  0  0  0  0
    2.9560  -26.5050   21.4980 C   0  0  0  0  0  0  0  0  0  0  0  0
    4.1160  -26.8270   22.1680 C   0  0  0  0  0  0  0  0  0  0  0  0
    4.3070  -28.1730   22.7830 C   0  0  0  0  0  0  0  0  0  0  0  0
    6.7580  -27.1170   23.4680 C   0  0  0  0  0  0  0  0  0  0  0  0
    7.9910  -26.8760   24.0130 N   0  0  0  0  0  0  0  0  0  0  0  0
    8.3900  -25.5770   23.7860 C   0  0  0  0  0  0  0  0  0  0  0  0
   12.7330  -25.1850   27.0260 N   0  0  0  0  0  0  0  0  0  0  0  0
   11.8290  -24.5100   28.0210 C   0  0  0  0  0  0  0  0  0  0  0  0
   12.0430  -24.9140   29.5120 C   0  0  0  0  0  0  0  0  0  0  0  0
   12.7620  -26.1850   29.6760 N   0  0  0  0  0  0  0  0  0  0  0  0
   12.9090  -26.5540   31.0790 C   0  0  0  0  0  0  0  0  0  0  0  0
   14.0670  -26.1570   28.9830 C   0  0  0  0  0  0  0  0  0  0  0  0
   14.0560  -25.2870   27.6950 C   0  0  1  0  0  0  0  0  0  0  0  0
   15.2490  -25.5590   26.7730 C   0  0  0  0  0  0  0  0  0  0  0  0
  1  2  1  0
  3  2  1  6
  3  4  1  0
  4  5  2  0
  4  6  1  0
  6  7  1  0
  7  8  2  0
  8  9  1  0
  9 10  2  0
 10 11  1  0
 11 12  1  0
 12 13  1  0
 13 14  2  0
 14 15  1  0
 15 16  1  0
 16 17  1  0
 17 18  2  0
 18 19  1  0
 19 20  2  0
 20 21  1  0
 21 22  1  0
 22 23  1  0
 22 24  2  0
 22 25  2  0
 21 26  2  0
 26 27  1  0
 15 28  2  0
 28 29  1  0
 29 30  2  0
 30 31  1  0
 12 32  2  0
 32 33  1  0
 33 34  1  0
  3 35  1  0
 35 36  1  0
 36 37  1  0
 37 38  1  0
 38 39  1  0
 38 40  1  0
 40 41  1  0
 41 42  1  6
 34  7  1  0
 41 35  1  0
 34 11  2  0
 30 13  1  0
 26 17  1  0
M  END
$$$$
