WCBPBBFIAODRLI-AWUJJIRRSA-N
     RDKit          3D

 34 37  0  0  0  0  0  0  0  0999 V2000
  135.1090  115.7770   42.3820 C   0  0  0  0  0  0  0  0  0  0  0  0
  133.8750  116.3690   41.7420 C   0  0  0  0  0  0  0  0  0  0  0  0
  132.6370  115.8660   41.9290 C   0  0  0  0  0  0  0  0  0  0  0  0
  132.3380  114.6420   42.7210 C   0  0  0  0  0  0  0  0  0  0  0  0
  132.4210  114.6790   43.9470 O   0  0  0  0  0  0  0  0  0  0  0  0
  132.0090  113.4980   41.9980 N   0  0  0  0  0  0  0  0  0  0  0  0
  130.6130  113.0800   42.0160 C   0  0  0  0  0  0  0  0  0  0  0  0
  132.9780  112.6770   41.2380 C   0  0  1  0  0  0  0  0  0  0  0  0
  133.3600  113.3640   39.9180 C   0  0  0  0  0  0  0  0  0  0  0  0
  134.3640  112.5400   39.1050 C   0  0  0  0  0  0  0  0  0  0  0  0
  135.6390  112.1420   39.8990 C   0  0  1  0  0  0  0  0  0  0  0  0
  136.4510  113.4290   40.1950 C   0  0  0  0  0  0  0  0  0  0  0  0
  135.1780  111.4270   41.2100 C   0  0  1  0  0  0  0  0  0  0  0  0
  136.3580  110.9160   42.0440 C   0  0  0  0  0  0  0  0  0  0  0  0
  137.2260  109.9530   41.2360 C   0  0  0  0  0  0  0  0  0  0  0  0
  137.7030  110.5650   39.9100 C   0  0  2  0  0  0  0  0  0  0  0  0
  136.5000  111.1120   39.0800 C   0  0  2  0  0  0  0  0  0  0  0  0
  136.9480  111.6160   37.6860 C   0  0  0  0  0  0  0  0  0  0  0  0
  137.8180  110.6060   36.9170 C   0  0  0  0  0  0  0  0  0  0  0  0
  139.0300  110.1350   37.7410 C   0  0  2  0  0  0  0  0  0  0  0  0
  140.0120  111.3110   37.9590 C   0  0  0  0  0  0  0  0  0  0  0  0
  139.7730  108.8770   37.1930 C   0  0  1  0  0  0  0  0  0  0  0  0
  140.8140  109.0440   36.0420 C   0  0  2  0  0  0  0  0  0  0  0  0
  140.2750  108.5860   34.6800 C   0  0  0  0  0  0  0  0  0  0  0  0
  142.0900  108.3810   36.4180 N   0  0  0  0  0  0  0  0  0  0  0  0
  143.2010  109.3280   36.5070 C   0  0  0  0  0  0  0  0  0  0  0  0
  142.4570  107.2390   35.5830 C   0  0  0  0  0  0  0  0  0  0  0  0
  140.4230  108.2710   38.4740 C   0  0  0  0  0  0  0  0  0  0  0  0
  139.6570  108.8320   39.6780 C   0  0  0  0  0  0  0  0  0  0  0  0
  138.4640  109.5420   39.0580 C   0  0  1  0  0  0  0  0  0  0  0  0
  134.2250  112.2890   42.0540 C   0  0  0  0  0  0  0  0  0  0  0  0
  134.1470  117.5950   40.8710 C   0  0  0  0  0  0  0  0  0  0  0  0
  133.4220  118.8740   41.3110 C   0  0  0  0  0  0  0  0  0  0  0  0
  133.8210  117.2920   39.4060 C   0  0  0  0  0  0  0  0  0  0  0  0
  1  2  1  0
  2  3  2  0
  3  4  1  0
  4  5  2  0
  4  6  1  0
  6  7  1  0
  8  6  1  1
  8  9  1  0
  9 10  1  0
 10 11  1  0
 11 12  1  1
 11 13  1  0
 13 14  1  1
 14 15  1  0
 16 15  1  1
 16 17  1  0
 17 18  1  6
 18 19  1  0
 19 20  1  0
 20 21  1  1
 20 22  1  0
 22 23  1  0
 23 24  1  6
 23 25  1  0
 25 26  1  0
 25 27  1  0
 22 28  1  1
 28 29  1  0
 30 29  1  1
 13 31  1  0
  2 32  1  0
 32 33  1  0
 32 34  1  0
 31  8  1  0
 17 11  1  0
 30 20  1  0
 30 16  1  0
M  END
$$$$
