JPMPBRCMWMZEJM-NRFANRHFSA-N
     RDKit          3D

 31 34  0  0  0  0  0  0  0  0999 V2000
   11.2980    7.7230  -14.0330 C   0  0  0  0  0  0  0  0  0  0  0  0
   11.0130    9.0990  -13.5100 C   0  0  0  0  0  0  0  0  0  0  0  0
   10.8200   10.1540  -14.3900 C   0  0  0  0  0  0  0  0  0  0  0  0
   10.5550   11.4140  -13.8700 C   0  0  0  0  0  0  0  0  0  0  0  0
   10.4940   11.5830  -12.4890 C   0  0  0  0  0  0  0  0  0  0  0  0
   10.7030   10.4840  -11.6550 C   0  0  0  0  0  0  0  0  0  0  0  0
   10.6550   10.5720  -10.1800 C   0  0  0  0  0  0  0  0  0  0  0  0
   10.8670   11.7780   -9.4890 C   0  0  0  0  0  0  0  0  0  0  0  0
   10.8120   11.8460   -8.0890 C   0  0  0  0  0  0  0  0  0  0  0  0
   10.5470   10.7010   -7.3410 C   0  0  0  0  0  0  0  0  0  0  0  0
   10.4650   10.6280   -5.9780 O   0  0  0  0  0  0  0  0  0  0  0  0
    9.3880   11.3300   -5.3530 C   0  0  0  0  0  0  0  0  0  0  0  0
    8.0890   10.6370   -5.7580 C   0  0  0  0  0  0  0  0  0  0  0  0
    7.2460   10.2450   -4.5510 C   0  0  0  0  0  0  0  0  0  0  0  0
    5.9340    9.9070   -4.9950 O   0  0  0  0  0  0  0  0  0  0  0  0
    5.2510    8.9700   -4.2670 C   0  0  0  0  0  0  0  0  0  0  0  0
    5.3300    9.1460   -2.8750 C   0  0  0  0  0  0  0  0  0  0  0  0
    4.6810    8.2770   -1.9930 C   0  0  0  0  0  0  0  0  0  0  0  0
    3.9640    7.2160   -2.5210 C   0  0  0  0  0  0  0  0  0  0  0  0
    3.8820    7.0390   -3.9080 C   0  0  0  0  0  0  0  0  0  0  0  0
    4.5110    7.9060   -4.7910 C   0  0  0  0  0  0  0  0  0  0  0  0
    3.0160    5.8660   -4.2490 C   0  0  0  0  0  0  0  0  0  0  0  0
    3.0180    5.1050   -2.9180 C   0  0  0  0  0  0  0  0  0  0  0  0
    3.1500    6.1690   -1.8030 C   0  0  1  0  0  0  0  0  0  0  0  0
    3.8000    5.6240   -0.5320 C   0  0  0  0  0  0  0  0  0  0  0  0
    4.9170    4.6660   -0.8410 C   0  0  0  0  0  0  0  0  0  0  0  0
    6.0250    4.9300   -1.2720 O   0  0  0  0  0  0  0  0  0  0  0  0
    4.5620    3.3880   -0.6050 O   0  0  0  0  0  0  0  0  0  0  0  0
   10.3460    9.4920   -8.0050 C   0  0  0  0  0  0  0  0  0  0  0  0
   10.4030    9.4290   -9.4020 C   0  0  0  0  0  0  0  0  0  0  0  0
   10.9530    9.2500  -12.1660 N   0  0  0  0  0  0  0  0  0  0  0  0
  1  2  1  0
  2  3  2  0
  3  4  1  0
  4  5  2  0
  5  6  1  0
  6  7  1  0
  7  8  2  0
  8  9  1  0
  9 10  2  0
 10 11  1  0
 11 12  1  0
 12 13  1  0
 13 14  1  0
 14 15  1  0
 15 16  1  0
 16 17  2  0
 17 18  1  0
 18 19  2  0
 19 20  1  0
 20 21  2  0
 20 22  1  0
 22 23  1  0
 23 24  1  0
 24 25  1  1
 25 26  1  0
 26 27  2  0
 26 28  1  0
 10 29  1  0
 29 30  2  0
  6 31  2  0
 31  2  1  0
 30  7  1  0
 21 16  1  0
 24 19  1  0
M  END
$$$$
