SINXKRJKXKMFBZ-AYDFFVQHSA-N
     RDKit          3D

 27 30  0  0  0  0  0  0  0  0999 V2000
    2.1830  -18.3320   21.2440 C   0  0  0  0  0  0  0  0  0  0  0  0
    2.9290  -17.0070   21.1000 C   0  0  2  0  0  0  0  0  0  0  0  0
    1.9320  -15.9560   21.1210 O   0  0  0  0  0  0  0  0  0  0  0  0
    1.8540  -15.3720   19.8170 C   0  0  0  0  0  0  0  0  0  0  0  0
    2.6120  -16.2850   18.8800 C   0  0  0  0  0  0  0  0  0  0  0  0
    3.7070  -16.8270   19.7820 C   0  0  2  0  0  0  0  0  0  0  0  0
    4.3810  -18.0580   19.2740 N   0  0  0  0  0  0  0  0  0  0  0  0
    4.0280  -18.4800   17.9020 C   0  0  0  0  0  0  0  0  0  0  0  0
    6.0130  -18.2970   19.7210 S   0  0  0  0  0  0  0  0  0  0  0  0
    6.7050  -18.9010   18.6020 O   0  0  0  0  0  0  0  0  0  0  0  0
    6.4850  -17.0660   20.3140 O   0  0  0  0  0  0  0  0  0  0  0  0
    5.8750  -19.5330   21.0170 C   0  0  0  0  0  0  0  0  0  0  0  0
    5.6910  -20.9120   20.4070 C   0  0  1  0  0  0  0  0  0  0  0  0
    6.5900  -22.0570   20.9410 C   0  0  0  0  0  0  0  0  0  0  0  0
    5.3680  -23.0040   20.7780 C   0  0  1  0  0  0  0  0  0  0  0  0
    5.2310  -23.9670   21.8340 N   0  0  0  0  0  0  0  0  0  0  0  0
    5.7850  -23.6930   23.1570 C   0  0  0  0  0  0  0  0  0  0  0  0
    4.4670  -25.1550   21.7950 C   0  0  0  0  0  0  0  0  0  0  0  0
    3.2550  -25.1230   21.1650 N   0  0  0  0  0  0  0  0  0  0  0  0
    2.4860  -26.2280   21.1420 C   0  0  0  0  0  0  0  0  0  0  0  0
    2.7560  -27.4320   21.6640 N   0  0  0  0  0  0  0  0  0  0  0  0
    3.9620  -27.4460   22.2460 C   0  0  0  0  0  0  0  0  0  0  0  0
    4.5070  -28.5500   22.8420 N   0  0  0  0  0  0  0  0  0  0  0  0
    5.7610  -28.2550   23.3050 C   0  0  0  0  0  0  0  0  0  0  0  0
    6.0120  -26.9320   23.0070 C   0  0  0  0  0  0  0  0  0  0  0  0
    4.8620  -26.3940   22.3530 C   0  0  0  0  0  0  0  0  0  0  0  0
    4.4970  -21.7260   20.9600 C   0  0  0  0  0  0  0  0  0  0  0  0
  2  1  1  6
  2  3  1  0
  3  4  1  0
  4  5  1  0
  5  6  1  0
  6  7  1  6
  7  8  1  0
  7  9  1  0
  9 10  2  0
  9 11  2  0
  9 12  1  0
 13 12  1  1
 13 14  1  0
 14 15  1  0
 15 16  1  1
 16 17  1  0
 16 18  1  0
 18 19  2  0
 19 20  1  0
 20 21  2  0
 21 22  1  0
 22 23  1  0
 23 24  1  0
 24 25  2  0
 25 26  1  0
 15 27  1  0
  6  2  1  0
 27 13  1  0
 26 18  1  0
 26 22  2  0
M  END
$$$$
