
 OpenBabel09052613353D

 33 37  0  0  0  0  0  0  0  0999 V2000
   14.1340   38.6660  124.8920 N   0  0  0  0  0  0  0  0  0  0  0  0
   13.2200   38.3790  125.9220 C   0  0  0  0  0  0  0  0  0  0  0  0
   12.2100   39.0410  126.1470 O   0  0  0  0  0  0  0  0  0  0  0  0
   13.5070   37.1610  126.8150 C   0  0  0  0  0  0  0  0  0  0  0  0
   12.7270   36.8140  127.6940 O   0  0  0  0  0  0  0  0  0  0  0  0
   14.6720   36.4800  126.5920 N   0  0  0  0  0  0  0  0  0  0  0  0
   15.5920   36.8330  125.6080 C   0  0  0  0  0  0  0  0  0  0  0  0
   16.7600   36.0680  125.5050 C   0  0  0  0  0  0  0  0  0  0  0  0
   17.7300   36.3760  124.5450 C   0  0  0  0  0  0  0  0  0  0  0  0
   17.5020   37.4650  123.6980 C   0  0  0  0  0  0  0  0  0  0  0  0
   16.3280   38.2270  123.8040 C   0  0  0  0  0  0  0  0  0  0  0  0
   15.3460   37.9200  124.7560 C   0  0  0  0  0  0  0  0  0  0  0  0
   14.8380   35.6910  127.2030 H   0  0  0  0  0  0  0  0  0  0  0  0
   13.8130   39.7960  124.0140 C   0  0  0  0  0  0  0  0  0  0  0  0
   12.7800   39.5130  122.8950 C   0  0  0  0  0  0  0  0  0  0  0  0
   13.3530   38.6950  121.7360 C   0  0  0  0  0  0  0  0  0  0  0  0
   12.0980   40.7690  122.3530 C   0  0  0  0  0  0  0  0  0  0  0  0
   18.9460   35.5760  124.4420 C   0  0  0  0  0  0  0  0  0  0  0  0
   20.1860   36.0740  124.5790 N   0  0  0  0  0  0  0  0  0  0  0  0
   18.9110   34.2190  124.2000 N   0  0  0  0  0  0  0  0  0  0  0  0
   21.0100   34.9680  124.3930 O   0  0  0  0  0  0  0  0  0  0  0  0
   20.1870   33.9040  124.1650 C   0  0  0  0  0  0  0  0  0  0  0  0
   20.8400   32.5870  123.9550 C   0  0  0  0  0  0  0  0  0  0  0  0
   20.8590   31.7520  125.1980 C   0  0  0  0  0  0  0  0  0  0  0  0
   21.8310   30.8380  125.5590 C   0  0  0  0  0  0  0  0  0  0  0  0
   19.8710   31.7390  126.2370 C   0  0  0  0  0  0  0  0  0  0  0  0
   21.4770   30.2840  126.7610 N   0  0  0  0  0  0  0  0  0  0  0  0
   18.6620   32.4310  126.4530 C   0  0  0  0  0  0  0  0  0  0  0  0
   20.2850   30.8130  127.1960 C   0  0  0  0  0  0  0  0  0  0  0  0
   17.9160   32.1730  127.6090 C   0  0  0  0  0  0  0  0  0  0  0  0
   19.5520   30.5430  128.3570 C   0  0  0  0  0  0  0  0  0  0  0  0
   18.3560   31.2420  128.5460 C   0  0  0  0  0  0  0  0  0  0  0  0
   22.0110   29.5870  127.2610 H   0  0  0  0  0  0  0  0  0  0  0  0
  1  2  1  0  0  0  0
  2  3  2  0  0  0  0
  2  4  1  0  0  0  0
  4  5  2  0  0  0  0
  6  4  1  0  0  0  0
  6 13  1  0  0  0  0
  7  6  1  0  0  0  0
  8  7  1  0  0  0  0
  9  8  2  0  0  0  0
 10 11  2  0  0  0  0
 10  9  1  0  0  0  0
 11 12  1  0  0  0  0
 12  1  1  0  0  0  0
 12  7  2  0  0  0  0
 14  1  1  0  0  0  0
 15 14  1  0  0  0  0
 16 15  1  0  0  0  0
 17 15  1  0  0  0  0
 18  9  1  0  0  0  0
 18 19  2  0  0  0  0
 20 18  1  0  0  0  0
 21 19  1  0  0  0  0
 22 20  2  0  0  0  0
 22 21  1  0  0  0  0
 23 22  1  0  0  0  0
 23 24  1  0  0  0  0
 24 25  2  0  0  0  0
 24 26  1  0  0  0  0
 25 27  1  0  0  0  0
 26 28  2  0  0  0  0
 26 29  1  0  0  0  0
 27 29  1  0  0  0  0
 27 33  1  0  0  0  0
 28 30  1  0  0  0  0
 29 31  2  0  0  0  0
 30 32  2  0  0  0  0
 31 32  1  0  0  0  0
M  END
>  <minimizedAffinity>
-9.58761024

>  <CNNscore>
0.420010448

>  <CNNaffinity>
6.87216949

$$$$

 OpenBabel09052613353D

 33 37  0  0  0  0  0  0  0  0999 V2000
   20.0010   31.9680  126.5670 N   0  0  0  0  0  0  0  0  0  0  0  0
   19.7720   30.9230  127.4810 C   0  0  0  0  0  0  0  0  0  0  0  0
   20.4750   29.9200  127.5660 O   0  0  0  0  0  0  0  0  0  0  0  0
   18.5670   31.0510  128.4280 C   0  0  0  0  0  0  0  0  0  0  0  0
   18.3380   30.2100  129.2890 O   0  0  0  0  0  0  0  0  0  0  0  0
   17.7580   32.1410  128.2690 N   0  0  0  0  0  0  0  0  0  0  0  0
   17.9720   33.1250  127.3060 C   0  0  0  0  0  0  0  0  0  0  0  0
   17.0480   34.1740  127.2310 C   0  0  0  0  0  0  0  0  0  0  0  0
   17.1990   35.1880  126.2790 C   0  0  0  0  0  0  0  0  0  0  0  0
   18.2920   35.1220  125.4080 C   0  0  0  0  0  0  0  0  0  0  0  0
   19.2150   34.0680  125.4900 C   0  0  0  0  0  0  0  0  0  0  0  0
   19.0780   33.0540  126.4460 C   0  0  0  0  0  0  0  0  0  0  0  0
   16.9670   32.1910  128.8980 H   0  0  0  0  0  0  0  0  0  0  0  0
   21.1870   31.8560  125.7130 C   0  0  0  0  0  0  0  0  0  0  0  0
   20.9380   31.9630  124.1880 C   0  0  0  0  0  0  0  0  0  0  0  0
   21.2630   33.3450  123.6190 C   0  0  0  0  0  0  0  0  0  0  0  0
   19.5300   31.5480  123.7630 C   0  0  0  0  0  0  0  0  0  0  0  0
   16.2340   36.2790  126.2040 C   0  0  0  0  0  0  0  0  0  0  0  0
   15.0070   36.2340  126.7480 N   0  0  0  0  0  0  0  0  0  0  0  0
   16.5180   37.4650  125.5610 N   0  0  0  0  0  0  0  0  0  0  0  0
   14.4520   37.4680  126.4180 O   0  0  0  0  0  0  0  0  0  0  0  0
   15.4020   38.1430  125.7070 C   0  0  0  0  0  0  0  0  0  0  0  0
   15.0490   39.5130  125.2550 C   0  0  0  0  0  0  0  0  0  0  0  0
   16.2150   40.2370  124.6590 C   0  0  0  0  0  0  0  0  0  0  0  0
   16.4500   40.4490  123.3130 C   0  0  0  0  0  0  0  0  0  0  0  0
   17.3070   40.8370  125.3690 C   0  0  0  0  0  0  0  0  0  0  0  0
   17.6220   41.1470  123.1850 N   0  0  0  0  0  0  0  0  0  0  0  0
   17.6430   40.9600  126.7340 C   0  0  0  0  0  0  0  0  0  0  0  0
   18.1660   41.3950  124.4220 C   0  0  0  0  0  0  0  0  0  0  0  0
   18.8170   41.6290  127.0970 C   0  0  0  0  0  0  0  0  0  0  0  0
   19.3450   42.0660  124.7680 C   0  0  0  0  0  0  0  0  0  0  0  0
   19.6550   42.1730  126.1270 C   0  0  0  0  0  0  0  0  0  0  0  0
   18.0320   41.4420  122.3090 H   0  0  0  0  0  0  0  0  0  0  0  0
  1  2  1  0  0  0  0
  2  3  2  0  0  0  0
  2  4  1  0  0  0  0
  4  5  2  0  0  0  0
  6  4  1  0  0  0  0
  6 13  1  0  0  0  0
  7  6  1  0  0  0  0
  8  7  1  0  0  0  0
  9  8  2  0  0  0  0
 10 11  2  0  0  0  0
 10  9  1  0  0  0  0
 11 12  1  0  0  0  0
 12  1  1  0  0  0  0
 12  7  2  0  0  0  0
 14  1  1  0  0  0  0
 15 14  1  0  0  0  0
 16 15  1  0  0  0  0
 17 15  1  0  0  0  0
 18  9  1  0  0  0  0
 18 19  2  0  0  0  0
 20 22  2  0  0  0  0
 20 18  1  0  0  0  0
 21 19  1  0  0  0  0
 22 21  1  0  0  0  0
 23 22  1  0  0  0  0
 24 23  1  0  0  0  0
 24 26  1  0  0  0  0
 25 24  2  0  0  0  0
 26 28  1  0  0  0  0
 27 25  1  0  0  0  0
 27 29  1  0  0  0  0
 28 30  2  0  0  0  0
 29 31  1  0  0  0  0
 29 26  2  0  0  0  0
 31 32  2  0  0  0  0
 32 30  1  0  0  0  0
 33 27  1  0  0  0  0
M  END
>  <minimizedAffinity>
-7.94604731

>  <CNNscore>
0.414824337

>  <CNNaffinity>
7.03828955

$$$$

 OpenBabel09052613353D

 33 37  0  0  0  0  0  0  0  0999 V2000
   14.7560   42.2410  122.4470 N   0  0  0  0  0  0  0  0  0  0  0  0
   13.3910   42.2370  122.1070 C   0  0  0  0  0  0  0  0  0  0  0  0
   12.7260   43.2530  121.9260 O   0  0  0  0  0  0  0  0  0  0  0  0
   12.6960   40.8730  121.9530 C   0  0  0  0  0  0  0  0  0  0  0  0
   11.5260   40.7880  121.6010 O   0  0  0  0  0  0  0  0  0  0  0  0
   13.4370   39.7570  122.2270 N   0  0  0  0  0  0  0  0  0  0  0  0
   14.7700   39.7980  122.6300 C   0  0  0  0  0  0  0  0  0  0  0  0
   15.4030   38.5810  122.9080 C   0  0  0  0  0  0  0  0  0  0  0  0
   16.7370   38.5540  123.3280 C   0  0  0  0  0  0  0  0  0  0  0  0
   17.4140   39.7690  123.4650 C   0  0  0  0  0  0  0  0  0  0  0  0
   16.7750   40.9860  123.1830 C   0  0  0  0  0  0  0  0  0  0  0  0
   15.4420   41.0240  122.7520 C   0  0  0  0  0  0  0  0  0  0  0  0
   12.9490   38.8770  122.1280 H   0  0  0  0  0  0  0  0  0  0  0  0
   15.4160   43.5480  122.5320 C   0  0  0  0  0  0  0  0  0  0  0  0
   15.4910   44.1790  123.9440 C   0  0  0  0  0  0  0  0  0  0  0  0
   16.7270   43.7450  124.7340 C   0  0  0  0  0  0  0  0  0  0  0  0
   14.2360   43.9570  124.7870 C   0  0  0  0  0  0  0  0  0  0  0  0
   17.3930   37.2830  123.6180 C   0  0  0  0  0  0  0  0  0  0  0  0
   16.8280   36.0820  123.4100 N   0  0  0  0  0  0  0  0  0  0  0  0
   18.6720   37.2190  124.1300 N   0  0  0  0  0  0  0  0  0  0  0  0
   17.8000   35.1810  123.8350 O   0  0  0  0  0  0  0  0  0  0  0  0
   18.8640   35.9250  124.2560 C   0  0  0  0  0  0  0  0  0  0  0  0
   20.0500   35.1780  124.7430 C   0  0  0  0  0  0  0  0  0  0  0  0
   19.7880   33.7100  124.8770 C   0  0  0  0  0  0  0  0  0  0  0  0
   20.1350   32.7270  123.9700 C   0  0  0  0  0  0  0  0  0  0  0  0
   19.1220   33.0530  125.9640 C   0  0  0  0  0  0  0  0  0  0  0  0
   19.7150   31.5190  124.4600 N   0  0  0  0  0  0  0  0  0  0  0  0
   18.5420   33.4940  127.1720 C   0  0  0  0  0  0  0  0  0  0  0  0
   19.0920   31.6890  125.6740 C   0  0  0  0  0  0  0  0  0  0  0  0
   17.9580   32.5610  128.0370 C   0  0  0  0  0  0  0  0  0  0  0  0
   18.5110   30.7430  126.5270 C   0  0  0  0  0  0  0  0  0  0  0  0
   17.9430   31.2060  127.7170 C   0  0  0  0  0  0  0  0  0  0  0  0
   19.8430   30.6270  124.0020 H   0  0  0  0  0  0  0  0  0  0  0  0
  1 14  1  0  0  0  0
  1 12  1  0  0  0  0
  2  1  1  0  0  0  0
  3  2  2  0  0  0  0
  4  2  1  0  0  0  0
  4  6  1  0  0  0  0
  5  4  2  0  0  0  0
  6  7  1  0  0  0  0
  7 12  2  0  0  0  0
  7  8  1  0  0  0  0
  8  9  2  0  0  0  0
  9 10  1  0  0  0  0
  9 18  1  0  0  0  0
 11 10  2  0  0  0  0
 12 11  1  0  0  0  0
 13  6  1  0  0  0  0
 14 15  1  0  0  0  0
 15 16  1  0  0  0  0
 15 17  1  0  0  0  0
 18 20  1  0  0  0  0
 19 18  2  0  0  0  0
 19 21  1  0  0  0  0
 20 22  2  0  0  0  0
 21 22  1  0  0  0  0
 22 23  1  0  0  0  0
 23 24  1  0  0  0  0
 24 26  1  0  0  0  0
 25 27  1  0  0  0  0
 25 24  2  0  0  0  0
 26 28  1  0  0  0  0
 27 29  1  0  0  0  0
 28 30  2  0  0  0  0
 29 26  2  0  0  0  0
 29 31  1  0  0  0  0
 31 32  2  0  0  0  0
 32 30  1  0  0  0  0
 33 27  1  0  0  0  0
M  END
>  <minimizedAffinity>
-9.91484833

>  <CNNscore>
0.410132021

>  <CNNaffinity>
6.80633736

$$$$

 OpenBabel09052613353D

 33 37  0  0  0  0  0  0  0  0999 V2000
   14.4680   42.2190  122.6640 N   0  0  0  0  0  0  0  0  0  0  0  0
   13.0640   42.1920  122.5650 C   0  0  0  0  0  0  0  0  0  0  0  0
   12.3660   43.1940  122.4390 O   0  0  0  0  0  0  0  0  0  0  0  0
   12.3680   40.8210  122.6180 C   0  0  0  0  0  0  0  0  0  0  0  0
   11.1570   40.7130  122.4800 O   0  0  0  0  0  0  0  0  0  0  0  0
   13.1590   39.7250  122.8300 N   0  0  0  0  0  0  0  0  0  0  0  0
   14.5400   39.7930  122.9940 C   0  0  0  0  0  0  0  0  0  0  0  0
   15.2260   38.5960  123.2340 C   0  0  0  0  0  0  0  0  0  0  0  0
   16.6130   38.5960  123.4190 C   0  0  0  0  0  0  0  0  0  0  0  0
   17.2890   39.8180  123.3600 C   0  0  0  0  0  0  0  0  0  0  0  0
   16.5970   41.0140  123.1170 C   0  0  0  0  0  0  0  0  0  0  0  0
   15.2100   41.0240  122.9210 C   0  0  0  0  0  0  0  0  0  0  0  0
   12.6710   38.8400  122.8720 H   0  0  0  0  0  0  0  0  0  0  0  0
   15.1170   43.5290  122.5520 C   0  0  0  0  0  0  0  0  0  0  0  0
   15.5810   43.9360  121.1310 C   0  0  0  0  0  0  0  0  0  0  0  0
   15.6500   45.4510  120.9310 C   0  0  0  0  0  0  0  0  0  0  0  0
   14.7580   43.3040  120.0090 C   0  0  0  0  0  0  0  0  0  0  0  0
   17.3230   37.3470  123.6690 C   0  0  0  0  0  0  0  0  0  0  0  0
   16.8010   36.1290  123.4480 N   0  0  0  0  0  0  0  0  0  0  0  0
   18.6140   37.3240  124.1550 N   0  0  0  0  0  0  0  0  0  0  0  0
   17.8160   35.2580  123.8360 O   0  0  0  0  0  0  0  0  0  0  0  0
   18.8590   36.0350  124.2510 C   0  0  0  0  0  0  0  0  0  0  0  0
   20.0830   35.3260  124.6990 C   0  0  0  0  0  0  0  0  0  0  0  0
   19.8760   33.8490  124.8270 C   0  0  0  0  0  0  0  0  0  0  0  0
   20.2800   32.8820  123.9250 C   0  0  0  0  0  0  0  0  0  0  0  0
   19.2130   33.1650  125.8980 C   0  0  0  0  0  0  0  0  0  0  0  0
   19.8980   31.6570  124.4060 N   0  0  0  0  0  0  0  0  0  0  0  0
   18.5920   33.5800  127.0950 C   0  0  0  0  0  0  0  0  0  0  0  0
   19.2430   31.8010  125.6060 C   0  0  0  0  0  0  0  0  0  0  0  0
   18.0260   32.6240  127.9460 C   0  0  0  0  0  0  0  0  0  0  0  0
   18.6820   30.8320  126.4460 C   0  0  0  0  0  0  0  0  0  0  0  0
   18.0720   31.2700  127.6240 C   0  0  0  0  0  0  0  0  0  0  0  0
   20.0700   30.7720  123.9490 H   0  0  0  0  0  0  0  0  0  0  0  0
  1 12  1  0  0  0  0
  2  4  1  0  0  0  0
  2  1  1  0  0  0  0
  3  2  2  0  0  0  0
  4  6  1  0  0  0  0
  5  4  2  0  0  0  0
  6 13  1  0  0  0  0
  6  7  1  0  0  0  0
  7  8  1  0  0  0  0
  8  9  2  0  0  0  0
  9 18  1  0  0  0  0
 10  9  1  0  0  0  0
 11 10  2  0  0  0  0
 12  7  2  0  0  0  0
 12 11  1  0  0  0  0
 14  1  1  0  0  0  0
 15 14  1  0  0  0  0
 16 15  1  0  0  0  0
 17 15  1  0  0  0  0
 18 20  1  0  0  0  0
 19 18  2  0  0  0  0
 19 21  1  0  0  0  0
 20 22  2  0  0  0  0
 21 22  1  0  0  0  0
 22 23  1  0  0  0  0
 23 24  1  0  0  0  0
 24 26  1  0  0  0  0
 25 27  1  0  0  0  0
 25 24  2  0  0  0  0
 26 28  1  0  0  0  0
 27 29  1  0  0  0  0
 28 30  2  0  0  0  0
 29 26  2  0  0  0  0
 29 31  1  0  0  0  0
 31 32  2  0  0  0  0
 32 30  1  0  0  0  0
 33 27  1  0  0  0  0
M  END
>  <minimizedAffinity>
-9.837533

>  <CNNscore>
0.405748039

>  <CNNaffinity>
6.7552104

$$$$

 OpenBabel09052613353D

 33 37  0  0  0  0  0  0  0  0999 V2000
   14.8850   42.2970  122.6230 N   0  0  0  0  0  0  0  0  0  0  0  0
   13.5440   42.3500  122.2010 C   0  0  0  0  0  0  0  0  0  0  0  0
   12.9230   43.3940  122.0180 O   0  0  0  0  0  0  0  0  0  0  0  0
   12.8180   41.0170  121.9540 C   0  0  0  0  0  0  0  0  0  0  0  0
   11.6700   40.9830  121.5290 O   0  0  0  0  0  0  0  0  0  0  0  0
   13.5060   39.8680  122.2310 N   0  0  0  0  0  0  0  0  0  0  0  0
   14.8110   39.8510  122.7160 C   0  0  0  0  0  0  0  0  0  0  0  0
   15.3880   38.6040  122.9860 C   0  0  0  0  0  0  0  0  0  0  0  0
   16.6920   38.5170  123.4850 C   0  0  0  0  0  0  0  0  0  0  0  0
   17.3970   39.7040  123.7080 C   0  0  0  0  0  0  0  0  0  0  0  0
   16.8140   40.9510  123.4330 C   0  0  0  0  0  0  0  0  0  0  0  0
   15.5130   41.0480  122.9230 C   0  0  0  0  0  0  0  0  0  0  0  0
   12.9980   39.0080  122.0700 H   0  0  0  0  0  0  0  0  0  0  0  0
   15.5780   43.5780  122.7970 C   0  0  0  0  0  0  0  0  0  0  0  0
   15.7290   44.0750  124.2550 C   0  0  0  0  0  0  0  0  0  0  0  0
   14.4410   43.9510  125.0720 C   0  0  0  0  0  0  0  0  0  0  0  0
   16.2780   45.4970  124.3690 C   0  0  0  0  0  0  0  0  0  0  0  0
   17.2890   37.2160  123.7660 C   0  0  0  0  0  0  0  0  0  0  0  0
   16.8860   36.0670  123.2000 N   0  0  0  0  0  0  0  0  0  0  0  0
   18.3400   37.0680  124.6470 N   0  0  0  0  0  0  0  0  0  0  0  0
   17.7190   35.1070  123.7680 O   0  0  0  0  0  0  0  0  0  0  0  0
   18.5510   35.7700  124.6220 C   0  0  0  0  0  0  0  0  0  0  0  0
   19.5590   34.9520  125.3420 C   0  0  0  0  0  0  0  0  0  0  0  0
   18.9430   34.0650  126.3780 C   0  0  0  0  0  0  0  0  0  0  0  0
   17.8680   34.3740  127.1910 C   0  0  0  0  0  0  0  0  0  0  0  0
   19.3560   32.7370  126.7260 C   0  0  0  0  0  0  0  0  0  0  0  0
   17.6160   33.2990  128.0010 N   0  0  0  0  0  0  0  0  0  0  0  0
   20.3720   31.8720  126.2690 C   0  0  0  0  0  0  0  0  0  0  0  0
   18.5100   32.2880  127.7410 C   0  0  0  0  0  0  0  0  0  0  0  0
   20.5040   30.6010  126.8410 C   0  0  0  0  0  0  0  0  0  0  0  0
   18.6290   31.0200  128.3230 C   0  0  0  0  0  0  0  0  0  0  0  0
   19.6440   30.1830  127.8530 C   0  0  0  0  0  0  0  0  0  0  0  0
   16.8800   33.2490  128.6920 H   0  0  0  0  0  0  0  0  0  0  0  0
  1 14  1  0  0  0  0
  1 12  1  0  0  0  0
  2  1  1  0  0  0  0
  3  2  2  0  0  0  0
  4  2  1  0  0  0  0
  4  6  1  0  0  0  0
  5  4  2  0  0  0  0
  6  7  1  0  0  0  0
  7 12  2  0  0  0  0
  7  8  1  0  0  0  0
  8  9  2  0  0  0  0
  9 10  1  0  0  0  0
  9 18  1  0  0  0  0
 11 10  2  0  0  0  0
 12 11  1  0  0  0  0
 13  6  1  0  0  0  0
 14 15  1  0  0  0  0
 15 17  1  0  0  0  0
 15 16  1  0  0  0  0
 18 20  1  0  0  0  0
 19 18  2  0  0  0  0
 19 21  1  0  0  0  0
 21 22  1  0  0  0  0
 22 20  2  0  0  0  0
 22 23  1  0  0  0  0
 23 24  1  0  0  0  0
 24 26  1  0  0  0  0
 24 25  2  0  0  0  0
 25 27  1  0  0  0  0
 26 29  1  0  0  0  0
 27 33  1  0  0  0  0
 28 26  2  0  0  0  0
 28 30  1  0  0  0  0
 29 27  1  0  0  0  0
 29 31  2  0  0  0  0
 30 32  2  0  0  0  0
 32 31  1  0  0  0  0
M  END
>  <minimizedAffinity>
-9.71260071

>  <CNNscore>
0.39485842

>  <CNNaffinity>
6.50632334

$$$$

 OpenBabel09052613353D

 33 37  0  0  0  0  0  0  0  0999 V2000
   14.9380   41.0810  122.5940 N   0  0  0  0  0  0  0  0  0  0  0  0
   13.6700   40.7570  122.0760 C   0  0  0  0  0  0  0  0  0  0  0  0
   12.8150   41.5880  121.7840 O   0  0  0  0  0  0  0  0  0  0  0  0
   13.3430   39.2690  121.8650 C   0  0  0  0  0  0  0  0  0  0  0  0
   12.2840   38.9120  121.3630 O   0  0  0  0  0  0  0  0  0  0  0  0
   14.2820   38.3580  122.2620 N   0  0  0  0  0  0  0  0  0  0  0  0
   15.5000   38.7100  122.8380 C   0  0  0  0  0  0  0  0  0  0  0  0
   16.3590   37.6750  123.2270 C   0  0  0  0  0  0  0  0  0  0  0  0
   17.5930   37.9610  123.8210 C   0  0  0  0  0  0  0  0  0  0  0  0
   17.9400   39.3010  124.0170 C   0  0  0  0  0  0  0  0  0  0  0  0
   17.0760   40.3340  123.6220 C   0  0  0  0  0  0  0  0  0  0  0  0
   15.8430   40.0580  123.0170 C   0  0  0  0  0  0  0  0  0  0  0  0
   14.0330   37.3870  122.1210 H   0  0  0  0  0  0  0  0  0  0  0  0
   15.2530   42.5060  122.7340 C   0  0  0  0  0  0  0  0  0  0  0  0
   15.0640   43.1080  124.1480 C   0  0  0  0  0  0  0  0  0  0  0  0
   13.6630   43.6760  124.3800 C   0  0  0  0  0  0  0  0  0  0  0  0
   16.1140   44.1550  124.5190 C   0  0  0  0  0  0  0  0  0  0  0  0
   18.4840   36.8790  124.2260 C   0  0  0  0  0  0  0  0  0  0  0  0
   19.6880   37.0700  124.7900 N   0  0  0  0  0  0  0  0  0  0  0  0
   18.1460   35.5520  124.0630 N   0  0  0  0  0  0  0  0  0  0  0  0
   20.1700   35.7780  124.9880 O   0  0  0  0  0  0  0  0  0  0  0  0
   19.2070   34.9290  124.5270 C   0  0  0  0  0  0  0  0  0  0  0  0
   19.4830   33.4750  124.6500 C   0  0  0  0  0  0  0  0  0  0  0  0
   19.1650   32.9450  126.0130 C   0  0  0  0  0  0  0  0  0  0  0  0
   19.3820   33.5900  127.2170 C   0  0  0  0  0  0  0  0  0  0  0  0
   18.5840   31.6720  126.3250 C   0  0  0  0  0  0  0  0  0  0  0  0
   18.9580   32.7690  128.2290 N   0  0  0  0  0  0  0  0  0  0  0  0
   18.1430   30.5770  125.5520 C   0  0  0  0  0  0  0  0  0  0  0  0
   18.4690   31.5920  127.7130 C   0  0  0  0  0  0  0  0  0  0  0  0
   17.6090   29.4520  126.1910 C   0  0  0  0  0  0  0  0  0  0  0  0
   17.9380   30.4750  128.3680 C   0  0  0  0  0  0  0  0  0  0  0  0
   17.5100   29.4040  127.5790 C   0  0  0  0  0  0  0  0  0  0  0  0
   18.9950   32.9910  129.2140 H   0  0  0  0  0  0  0  0  0  0  0  0
  1 14  1  0  0  0  0
  1 12  1  0  0  0  0
  2  1  1  0  0  0  0
  3  2  2  0  0  0  0
  4  2  1  0  0  0  0
  4  6  1  0  0  0  0
  5  4  2  0  0  0  0
  6  7  1  0  0  0  0
  7 12  2  0  0  0  0
  7  8  1  0  0  0  0
  8  9  2  0  0  0  0
  9 10  1  0  0  0  0
  9 18  1  0  0  0  0
 11 10  2  0  0  0  0
 12 11  1  0  0  0  0
 13  6  1  0  0  0  0
 14 15  1  0  0  0  0
 15 16  1  0  0  0  0
 15 17  1  0  0  0  0
 18 19  2  0  0  0  0
 19 21  1  0  0  0  0
 20 18  1  0  0  0  0
 20 22  2  0  0  0  0
 22 23  1  0  0  0  0
 22 21  1  0  0  0  0
 23 24  1  0  0  0  0
 24 26  1  0  0  0  0
 24 25  2  0  0  0  0
 25 27  1  0  0  0  0
 26 29  1  0  0  0  0
 27 33  1  0  0  0  0
 28 30  1  0  0  0  0
 28 26  2  0  0  0  0
 29 27  1  0  0  0  0
 29 31  2  0  0  0  0
 30 32  2  0  0  0  0
 32 31  1  0  0  0  0
M  END
>  <minimizedAffinity>
-9.21986675

>  <CNNscore>
0.358501405

>  <CNNaffinity>
6.47535133

$$$$

 OpenBabel09052613353D

 33 37  0  0  0  0  0  0  0  0999 V2000
   14.2920   41.1130  122.2660 N   0  0  0  0  0  0  0  0  0  0  0  0
   13.0730   40.5670  121.8230 C   0  0  0  0  0  0  0  0  0  0  0  0
   12.0880   41.2390  121.5270 O   0  0  0  0  0  0  0  0  0  0  0  0
   12.9750   39.0370  121.7020 C   0  0  0  0  0  0  0  0  0  0  0  0
   11.9670   38.4930  121.2680 O   0  0  0  0  0  0  0  0  0  0  0  0
   14.0590   38.3060  122.1020 N   0  0  0  0  0  0  0  0  0  0  0  0
   15.2280   38.8740  122.6040 C   0  0  0  0  0  0  0  0  0  0  0  0
   16.2510   38.0080  123.0070 C   0  0  0  0  0  0  0  0  0  0  0  0
   17.4460   38.5150  123.5290 C   0  0  0  0  0  0  0  0  0  0  0  0
   17.5860   39.9020  123.6400 C   0  0  0  0  0  0  0  0  0  0  0  0
   16.5570   40.7650  123.2330 C   0  0  0  0  0  0  0  0  0  0  0  0
   15.3610   40.2680  122.6990 C   0  0  0  0  0  0  0  0  0  0  0  0
   13.9600   37.3030  122.0230 H   0  0  0  0  0  0  0  0  0  0  0  0
   14.3850   42.5750  122.3190 C   0  0  0  0  0  0  0  0  0  0  0  0
   15.1400   43.2490  121.1460 C   0  0  0  0  0  0  0  0  0  0  0  0
   15.5200   44.7030  121.4290 C   0  0  0  0  0  0  0  0  0  0  0  0
   14.4080   43.1570  119.8080 C   0  0  0  0  0  0  0  0  0  0  0  0
   18.5100   37.6090  123.9480 C   0  0  0  0  0  0  0  0  0  0  0  0
   19.7790   37.9910  124.1660 N   0  0  0  0  0  0  0  0  0  0  0  0
   18.2840   36.2650  124.1640 N   0  0  0  0  0  0  0  0  0  0  0  0
   20.4230   36.8100  124.5280 O   0  0  0  0  0  0  0  0  0  0  0  0
   19.4780   35.8260  124.4980 C   0  0  0  0  0  0  0  0  0  0  0  0
   19.9240   34.4610  124.8730 C   0  0  0  0  0  0  0  0  0  0  0  0
   19.1340   33.8920  126.0100 C   0  0  0  0  0  0  0  0  0  0  0  0
   18.0800   34.5020  126.6650 C   0  0  0  0  0  0  0  0  0  0  0  0
   19.3260   32.6160  126.6350 C   0  0  0  0  0  0  0  0  0  0  0  0
   17.6330   33.6560  127.6440 N   0  0  0  0  0  0  0  0  0  0  0  0
   20.2220   31.5460  126.4300 C   0  0  0  0  0  0  0  0  0  0  0  0
   18.3760   32.5000  127.6500 C   0  0  0  0  0  0  0  0  0  0  0  0
   20.1360   30.4090  127.2420 C   0  0  0  0  0  0  0  0  0  0  0  0
   18.2770   31.3710  128.4720 C   0  0  0  0  0  0  0  0  0  0  0  0
   19.1770   30.3250  128.2480 C   0  0  0  0  0  0  0  0  0  0  0  0
   16.8660   33.8470  128.2750 H   0  0  0  0  0  0  0  0  0  0  0  0
  1 14  1  0  0  0  0
  1 12  1  0  0  0  0
  2  1  1  0  0  0  0
  3  2  2  0  0  0  0
  4  2  1  0  0  0  0
  4  6  1  0  0  0  0
  5  4  2  0  0  0  0
  6  7  1  0  0  0  0
  7 12  2  0  0  0  0
  7  8  1  0  0  0  0
  8  9  2  0  0  0  0
  9 10  1  0  0  0  0
  9 18  1  0  0  0  0
 11 10  2  0  0  0  0
 12 11  1  0  0  0  0
 13  6  1  0  0  0  0
 15 16  1  0  0  0  0
 15 14  1  0  0  0  0
 17 15  1  0  0  0  0
 18 20  1  0  0  0  0
 18 19  2  0  0  0  0
 19 21  1  0  0  0  0
 20 22  2  0  0  0  0
 22 21  1  0  0  0  0
 22 23  1  0  0  0  0
 23 24  1  0  0  0  0
 24 26  1  0  0  0  0
 24 25  2  0  0  0  0
 25 27  1  0  0  0  0
 26 29  1  0  0  0  0
 27 29  1  0  0  0  0
 27 33  1  0  0  0  0
 28 26  2  0  0  0  0
 28 30  1  0  0  0  0
 29 31  2  0  0  0  0
 30 32  2  0  0  0  0
 32 31  1  0  0  0  0
M  END
>  <minimizedAffinity>
-10.142149

>  <CNNscore>
0.323995888

>  <CNNaffinity>
6.41648674

$$$$

 OpenBabel09052613353D

 33 37  0  0  0  0  0  0  0  0999 V2000
   16.7280   35.9580  125.0870 N   0  0  0  0  0  0  0  0  0  0  0  0
   16.2770   35.3800  126.2880 C   0  0  0  0  0  0  0  0  0  0  0  0
   16.8540   34.4650  126.8680 O   0  0  0  0  0  0  0  0  0  0  0  0
   14.9820   35.9330  126.9070 C   0  0  0  0  0  0  0  0  0  0  0  0
   14.5590   35.5220  127.9800 O   0  0  0  0  0  0  0  0  0  0  0  0
   14.3180   36.9040  126.2080 N   0  0  0  0  0  0  0  0  0  0  0  0
   14.7550   37.4060  124.9840 C   0  0  0  0  0  0  0  0  0  0  0  0
   13.9640   38.3770  124.3600 C   0  0  0  0  0  0  0  0  0  0  0  0
   14.3400   38.9150  123.1250 C   0  0  0  0  0  0  0  0  0  0  0  0
   15.5210   38.4540  122.5330 C   0  0  0  0  0  0  0  0  0  0  0  0
   16.3110   37.4810  123.1650 C   0  0  0  0  0  0  0  0  0  0  0  0
   15.9480   36.9440  124.4070 C   0  0  0  0  0  0  0  0  0  0  0  0
   13.4640   37.2390  126.6340 H   0  0  0  0  0  0  0  0  0  0  0  0
   17.9950   35.4570  124.5440 C   0  0  0  0  0  0  0  0  0  0  0  0
   19.1960   36.4320  124.6180 C   0  0  0  0  0  0  0  0  0  0  0  0
   20.5500   35.7200  124.6360 C   0  0  0  0  0  0  0  0  0  0  0  0
   19.1170   37.4210  125.7790 C   0  0  0  0  0  0  0  0  0  0  0  0
   13.5120   39.9260  122.4780 C   0  0  0  0  0  0  0  0  0  0  0  0
   12.3800   39.6540  121.8080 N   0  0  0  0  0  0  0  0  0  0  0  0
   13.8330   41.2670  122.5130 N   0  0  0  0  0  0  0  0  0  0  0  0
   11.9500   40.9010  121.3620 O   0  0  0  0  0  0  0  0  0  0  0  0
   12.8630   41.8100  121.8110 C   0  0  0  0  0  0  0  0  0  0  0  0
   12.6070   43.2340  121.4770 C   0  0  0  0  0  0  0  0  0  0  0  0
   11.1830   43.4840  121.0890 C   0  0  0  0  0  0  0  0  0  0  0  0
   10.0810   43.4140  121.9210 C   0  0  0  0  0  0  0  0  0  0  0  0
   10.6960   43.8340  119.7870 C   0  0  0  0  0  0  0  0  0  0  0  0
    8.9640   43.7070  121.1840 N   0  0  0  0  0  0  0  0  0  0  0  0
   11.3090   44.0540  118.5350 C   0  0  0  0  0  0  0  0  0  0  0  0
    9.3100   43.9650  119.8790 C   0  0  0  0  0  0  0  0  0  0  0  0
   10.5180   44.3930  117.4310 C   0  0  0  0  0  0  0  0  0  0  0  0
    8.5050   44.3020  118.7840 C   0  0  0  0  0  0  0  0  0  0  0  0
    9.1370   44.5140  117.5560 C   0  0  0  0  0  0  0  0  0  0  0  0
    8.0200   43.7330  121.5410 H   0  0  0  0  0  0  0  0  0  0  0  0
  1  2  1  0  0  0  0
  2  3  2  0  0  0  0
  2  4  1  0  0  0  0
  4  5  2  0  0  0  0
  6 13  1  0  0  0  0
  6  4  1  0  0  0  0
  7  6  1  0  0  0  0
  8  7  2  0  0  0  0
  9  8  1  0  0  0  0
 10  9  2  0  0  0  0
 10 11  1  0  0  0  0
 11 12  2  0  0  0  0
 12  7  1  0  0  0  0
 12  1  1  0  0  0  0
 14 15  1  0  0  0  0
 14  1  1  0  0  0  0
 15 16  1  0  0  0  0
 15 17  1  0  0  0  0
 18 20  1  0  0  0  0
 18  9  1  0  0  0  0
 19 18  2  0  0  0  0
 21 19  1  0  0  0  0
 21 22  1  0  0  0  0
 22 20  2  0  0  0  0
 23 22  1  0  0  0  0
 24 23  1  0  0  0  0
 24 25  2  0  0  0  0
 26 29  1  0  0  0  0
 26 24  1  0  0  0  0
 27 33  1  0  0  0  0
 27 25  1  0  0  0  0
 28 26  2  0  0  0  0
 29 27  1  0  0  0  0
 30 32  2  0  0  0  0
 30 28  1  0  0  0  0
 31 29  2  0  0  0  0
 32 31  1  0  0  0  0
M  END
>  <minimizedAffinity>
-8.5476265

>  <CNNscore>
0.312822372

>  <CNNaffinity>
5.91255713

$$$$

 OpenBabel09052613353D

 33 37  0  0  0  0  0  0  0  0999 V2000
   16.5810   36.1880  125.0660 N   0  0  0  0  0  0  0  0  0  0  0  0
   16.1870   35.5510  126.2570 C   0  0  0  0  0  0  0  0  0  0  0  0
   16.8330   34.6630  126.8060 O   0  0  0  0  0  0  0  0  0  0  0  0
   14.8670   36.0000  126.9060 C   0  0  0  0  0  0  0  0  0  0  0  0
   14.4880   35.5340  127.9730 O   0  0  0  0  0  0  0  0  0  0  0  0
   14.1290   36.9400  126.2400 N   0  0  0  0  0  0  0  0  0  0  0  0
   14.5140   37.5010  125.0250 C   0  0  0  0  0  0  0  0  0  0  0  0
   13.6500   38.4320  124.4350 C   0  0  0  0  0  0  0  0  0  0  0  0
   13.9720   39.0240  123.2100 C   0  0  0  0  0  0  0  0  0  0  0  0
   15.1720   38.6590  122.5920 C   0  0  0  0  0  0  0  0  0  0  0  0
   16.0350   37.7270  123.1890 C   0  0  0  0  0  0  0  0  0  0  0  0
   15.7270   37.1360  124.4210 C   0  0  0  0  0  0  0  0  0  0  0  0
   13.2600   37.2050  126.6850 H   0  0  0  0  0  0  0  0  0  0  0  0
   17.8710   35.7890  124.4940 C   0  0  0  0  0  0  0  0  0  0  0  0
   19.1250   36.4330  125.1350 C   0  0  0  0  0  0  0  0  0  0  0  0
   19.2070   37.9450  124.9130 C   0  0  0  0  0  0  0  0  0  0  0  0
   20.4400   35.7780  124.7120 C   0  0  0  0  0  0  0  0  0  0  0  0
   13.0680   39.9930  122.5990 C   0  0  0  0  0  0  0  0  0  0  0  0
   12.0180   39.6590  121.8310 N   0  0  0  0  0  0  0  0  0  0  0  0
   13.2240   41.3510  122.7750 N   0  0  0  0  0  0  0  0  0  0  0  0
   11.4690   40.8870  121.4690 O   0  0  0  0  0  0  0  0  0  0  0  0
   12.2390   41.8460  122.0590 C   0  0  0  0  0  0  0  0  0  0  0  0
   11.8350   43.2570  121.8350 C   0  0  0  0  0  0  0  0  0  0  0  0
   11.0920   43.8320  123.0000 C   0  0  0  0  0  0  0  0  0  0  0  0
   11.5480   44.8120  123.8630 C   0  0  0  0  0  0  0  0  0  0  0  0
    9.7780   43.4690  123.4440 C   0  0  0  0  0  0  0  0  0  0  0  0
   10.5730   45.0550  124.7940 N   0  0  0  0  0  0  0  0  0  0  0  0
    8.8080   42.5490  122.9950 C   0  0  0  0  0  0  0  0  0  0  0  0
    9.4840   44.2480  124.5640 C   0  0  0  0  0  0  0  0  0  0  0  0
    7.5900   42.4420  123.6770 C   0  0  0  0  0  0  0  0  0  0  0  0
    8.2720   44.1540  125.2580 C   0  0  0  0  0  0  0  0  0  0  0  0
    7.3290   43.2340  124.7920 C   0  0  0  0  0  0  0  0  0  0  0  0
   10.6380   45.7300  125.5430 H   0  0  0  0  0  0  0  0  0  0  0  0
  1  2  1  0  0  0  0
  2  3  2  0  0  0  0
  2  4  1  0  0  0  0
  4  5  2  0  0  0  0
  6 13  1  0  0  0  0
  6  4  1  0  0  0  0
  7  6  1  0  0  0  0
  8  7  1  0  0  0  0
  9  8  2  0  0  0  0
 10 11  2  0  0  0  0
 10  9  1  0  0  0  0
 11 12  1  0  0  0  0
 12  7  2  0  0  0  0
 12  1  1  0  0  0  0
 14  1  1  0  0  0  0
 14 15  1  0  0  0  0
 16 15  1  0  0  0  0
 17 15  1  0  0  0  0
 18 20  1  0  0  0  0
 18  9  1  0  0  0  0
 19 18  2  0  0  0  0
 21 19  1  0  0  0  0
 21 22  1  0  0  0  0
 22 20  2  0  0  0  0
 23 22  1  0  0  0  0
 23 24  1  0  0  0  0
 24 26  1  0  0  0  0
 24 25  2  0  0  0  0
 25 27  1  0  0  0  0
 26 29  1  0  0  0  0
 27 33  1  0  0  0  0
 28 26  2  0  0  0  0
 28 30  1  0  0  0  0
 29 27  1  0  0  0  0
 29 31  2  0  0  0  0
 30 32  2  0  0  0  0
 32 31  1  0  0  0  0
M  END
>  <minimizedAffinity>
-9.50873375

>  <CNNscore>
0.30741787

>  <CNNaffinity>
6.04165316

$$$$
