
 OpenBabel09052614163D

 32 35  0  0  0  0  0  0  0  0999 V2000
   17.6850   37.9900  124.1800 C   0  0  0  0  0  0  0  0  0  0  0  0
   18.9560   38.5700  124.1830 C   0  0  0  0  0  0  0  0  0  0  0  0
   20.0310   37.9390  124.8240 C   0  0  0  0  0  0  0  0  0  0  0  0
   19.8480   36.7170  125.4650 C   0  0  0  0  0  0  0  0  0  0  0  0
   18.5830   36.1320  125.4560 C   0  0  0  0  0  0  0  0  0  0  0  0
   17.5010   36.7640  124.8280 C   0  0  0  0  0  0  0  0  0  0  0  0
   16.5500   38.5680  123.5710 N   0  0  0  0  0  0  0  0  0  0  0  0
   15.6500   36.7570  122.4370 O   0  0  0  0  0  0  0  0  0  0  0  0
   15.6340   37.9490  122.7260 C   0  0  0  0  0  0  0  0  0  0  0  0
   16.3610   39.5260  123.8280 H   0  0  0  0  0  0  0  0  0  0  0  0
   14.5940   38.8560  122.2050 C   0  0  0  0  0  0  0  0  0  0  0  0
   14.5320   40.2790  122.2330 C   0  0  0  0  0  0  0  0  0  0  0  0
   13.5100   38.3660  121.5820 N   0  0  0  0  0  0  0  0  0  0  0  0
   13.3510   40.6040  121.6040 C   0  0  0  0  0  0  0  0  0  0  0  0
   12.7420   39.4490  121.2170 O   0  0  0  0  0  0  0  0  0  0  0  0
   12.6600   41.8430  121.2790 C   0  0  0  0  0  0  0  0  0  0  0  0
   13.2110   42.8040  120.4240 C   0  0  0  0  0  0  0  0  0  0  0  0
   11.4030   42.1330  121.8070 C   0  0  0  0  0  0  0  0  0  0  0  0
   12.5100   43.9770  120.1390 C   0  0  0  0  0  0  0  0  0  0  0  0
   10.6950   43.2610  121.5480 N   0  0  0  0  0  0  0  0  0  0  0  0
   11.2680   44.1570  120.7190 C   0  0  0  0  0  0  0  0  0  0  0  0
   18.3130   34.5790  126.2650 S   0  0  0  0  0  0  0  0  0  0  0  0
   19.1520   34.5070  127.4400 O   0  0  0  0  0  0  0  0  0  0  0  0
   16.8830   34.3720  126.3280 O   0  0  0  0  0  0  0  0  0  0  0  0
   18.9030   33.5040  125.1340 N   0  0  0  0  0  0  0  0  0  0  0  0
   18.1960   33.1570  124.4850 H   0  0  0  0  0  0  0  0  0  0  0  0
   19.9120   32.5450  125.5710 C   0  0  0  0  0  0  0  0  0  0  0  0
   19.2160   31.5020  126.3660 C   0  0  0  0  0  0  0  0  0  0  0  0
   18.0650   30.7680  126.1690 C   0  0  0  0  0  0  0  0  0  0  0  0
   19.7820   31.1680  127.5630 O   0  0  0  0  0  0  0  0  0  0  0  0
   17.9250   29.9330  127.3050 C   0  0  0  0  0  0  0  0  0  0  0  0
   18.9940   30.2140  128.1220 C   0  0  0  0  0  0  0  0  0  0  0  0
  1  2  2  0  0  0  0
  1  6  1  0  0  0  0
  2  3  1  0  0  0  0
  3  4  2  0  0  0  0
  5  4  1  0  0  0  0
  5 22  1  0  0  0  0
  6  5  2  0  0  0  0
  7 10  1  0  0  0  0
  7  1  1  0  0  0  0
  8  9  2  0  0  0  0
  9  7  1  0  0  0  0
 11 12  1  0  0  0  0
 11  9  1  0  0  0  0
 13 11  2  0  0  0  0
 14 12  2  0  0  0  0
 15 13  1  0  0  0  0
 15 14  1  0  0  0  0
 16 14  1  0  0  0  0
 16 18  1  0  0  0  0
 17 16  2  0  0  0  0
 19 17  1  0  0  0  0
 19 21  2  0  0  0  0
 20 18  2  0  0  0  0
 21 20  1  0  0  0  0
 22 24  2  0  0  0  0
 22 23  2  0  0  0  0
 25 27  1  0  0  0  0
 25 22  1  0  0  0  0
 26 25  1  0  0  0  0
 27 28  1  0  0  0  0
 28 30  1  0  0  0  0
 29 28  2  0  0  0  0
 29 31  1  0  0  0  0
 30 32  1  0  0  0  0
 31 32  2  0  0  0  0
M  END
>  <minimizedAffinity>
-8.6837883

>  <CNNscore>
0.210925668

>  <CNNaffinity>
5.79548788

$$$$

 OpenBabel09052614163D

 32 35  0  0  0  0  0  0  0  0999 V2000
   18.3810   36.2540  124.4560 C   0  0  0  0  0  0  0  0  0  0  0  0
   19.5430   37.0010  124.6680 C   0  0  0  0  0  0  0  0  0  0  0  0
   20.7910   36.3720  124.7730 C   0  0  0  0  0  0  0  0  0  0  0  0
   20.8930   34.9890  124.6640 C   0  0  0  0  0  0  0  0  0  0  0  0
   19.7370   34.2410  124.4450 C   0  0  0  0  0  0  0  0  0  0  0  0
   18.4850   34.8620  124.3510 C   0  0  0  0  0  0  0  0  0  0  0  0
   17.0870   36.8080  124.3530 N   0  0  0  0  0  0  0  0  0  0  0  0
   15.8140   35.2520  125.5060 O   0  0  0  0  0  0  0  0  0  0  0  0
   15.8970   36.2780  124.8400 C   0  0  0  0  0  0  0  0  0  0  0  0
   17.0410   37.7210  123.9230 H   0  0  0  0  0  0  0  0  0  0  0  0
   14.7050   37.0800  124.5040 C   0  0  0  0  0  0  0  0  0  0  0  0
   14.6110   38.4380  124.0850 C   0  0  0  0  0  0  0  0  0  0  0  0
   13.4780   36.5350  124.5570 N   0  0  0  0  0  0  0  0  0  0  0  0
   13.2670   38.6710  123.9030 C   0  0  0  0  0  0  0  0  0  0  0  0
   12.5930   37.5240  124.1900 O   0  0  0  0  0  0  0  0  0  0  0  0
   12.4610   39.8120  123.4890 C   0  0  0  0  0  0  0  0  0  0  0  0
   11.7750   40.6130  124.4080 C   0  0  0  0  0  0  0  0  0  0  0  0
   12.3370   40.1630  122.1470 C   0  0  0  0  0  0  0  0  0  0  0  0
   11.0170   41.6980  123.9660 C   0  0  0  0  0  0  0  0  0  0  0  0
   11.6100   41.2120  121.6850 N   0  0  0  0  0  0  0  0  0  0  0  0
   10.9660   41.9540  122.6080 C   0  0  0  0  0  0  0  0  0  0  0  0
   19.8290   32.4770  124.3040 S   0  0  0  0  0  0  0  0  0  0  0  0
   19.3150   32.0800  123.0130 O   0  0  0  0  0  0  0  0  0  0  0  0
   21.1400   32.0800  124.7650 O   0  0  0  0  0  0  0  0  0  0  0  0
   18.7420   31.9900  125.4720 N   0  0  0  0  0  0  0  0  0  0  0  0
   17.8610   31.6390  125.0960 H   0  0  0  0  0  0  0  0  0  0  0  0
   18.6570   32.7850  126.6930 C   0  0  0  0  0  0  0  0  0  0  0  0
   19.0810   31.9140  127.8190 C   0  0  0  0  0  0  0  0  0  0  0  0
   20.3100   31.4820  128.2750 C   0  0  0  0  0  0  0  0  0  0  0  0
   18.0860   31.3890  128.5930 O   0  0  0  0  0  0  0  0  0  0  0  0
   20.0510   30.6540  129.3940 C   0  0  0  0  0  0  0  0  0  0  0  0
   18.6850   30.6300  129.5470 C   0  0  0  0  0  0  0  0  0  0  0  0
  1  2  1  0  0  0  0
  2  3  2  0  0  0  0
  4  3  1  0  0  0  0
  5  4  2  0  0  0  0
  6  5  1  0  0  0  0
  6  1  2  0  0  0  0
  7  1  1  0  0  0  0
  7  9  1  0  0  0  0
  9  8  2  0  0  0  0
 10  7  1  0  0  0  0
 11 13  2  0  0  0  0
 11  9  1  0  0  0  0
 12 11  1  0  0  0  0
 14 12  2  0  0  0  0
 14 15  1  0  0  0  0
 15 13  1  0  0  0  0
 16 14  1  0  0  0  0
 16 17  1  0  0  0  0
 18 16  2  0  0  0  0
 19 17  2  0  0  0  0
 20 18  1  0  0  0  0
 20 21  2  0  0  0  0
 21 19  1  0  0  0  0
 22  5  1  0  0  0  0
 22 24  2  0  0  0  0
 22 25  1  0  0  0  0
 23 22  2  0  0  0  0
 25 27  1  0  0  0  0
 26 25  1  0  0  0  0
 27 28  1  0  0  0  0
 28 29  2  0  0  0  0
 28 30  1  0  0  0  0
 29 31  1  0  0  0  0
 30 32  1  0  0  0  0
 31 32  2  0  0  0  0
M  END
>  <minimizedAffinity>
-9.33878517

>  <CNNscore>
0.17307888

>  <CNNaffinity>
5.56276655

$$$$

 OpenBabel09052614163D

 32 35  0  0  0  0  0  0  0  0999 V2000
   17.2000   38.0330  124.1900 C   0  0  0  0  0  0  0  0  0  0  0  0
   18.4280   38.6720  124.0020 C   0  0  0  0  0  0  0  0  0  0  0  0
   19.6170   38.0920  124.4660 C   0  0  0  0  0  0  0  0  0  0  0  0
   19.5920   36.8630  125.1180 C   0  0  0  0  0  0  0  0  0  0  0  0
   18.3680   36.2190  125.2990 C   0  0  0  0  0  0  0  0  0  0  0  0
   17.1750   36.7990  124.8490 C   0  0  0  0  0  0  0  0  0  0  0  0
   15.9590   38.5570  123.7660 N   0  0  0  0  0  0  0  0  0  0  0  0
   15.3890   37.0970  122.0580 O   0  0  0  0  0  0  0  0  0  0  0  0
   15.1550   38.0970  122.7290 C   0  0  0  0  0  0  0  0  0  0  0  0
   15.5990   39.3190  124.3230 H   0  0  0  0  0  0  0  0  0  0  0  0
   13.9470   38.9130  122.5030 C   0  0  0  0  0  0  0  0  0  0  0  0
   13.3520   39.9050  123.3340 C   0  0  0  0  0  0  0  0  0  0  0  0
   13.2390   38.7860  121.3680 N   0  0  0  0  0  0  0  0  0  0  0  0
   12.2510   40.3510  122.6370 C   0  0  0  0  0  0  0  0  0  0  0  0
   12.1890   39.6720  121.4580 O   0  0  0  0  0  0  0  0  0  0  0  0
   11.2060   41.3360  122.8740 C   0  0  0  0  0  0  0  0  0  0  0  0
   10.4630   41.3660  124.0600 C   0  0  0  0  0  0  0  0  0  0  0  0
   10.8930   42.3060  121.9240 C   0  0  0  0  0  0  0  0  0  0  0  0
    9.4720   42.3300  124.2450 C   0  0  0  0  0  0  0  0  0  0  0  0
    9.9380   43.2580  122.0740 N   0  0  0  0  0  0  0  0  0  0  0  0
    9.2490   43.2460  123.2330 C   0  0  0  0  0  0  0  0  0  0  0  0
   18.2990   34.6540  126.1280 S   0  0  0  0  0  0  0  0  0  0  0  0
   19.2170   34.6700  127.2440 O   0  0  0  0  0  0  0  0  0  0  0  0
   16.9020   34.3160  126.2860 O   0  0  0  0  0  0  0  0  0  0  0  0
   18.9100   33.6300  124.9620 N   0  0  0  0  0  0  0  0  0  0  0  0
   18.2050   33.2620  124.3230 H   0  0  0  0  0  0  0  0  0  0  0  0
   19.9730   32.7100  125.3560 C   0  0  0  0  0  0  0  0  0  0  0  0
   19.3560   31.6530  126.1950 C   0  0  0  0  0  0  0  0  0  0  0  0
   19.6990   31.0770  127.4020 C   0  0  0  0  0  0  0  0  0  0  0  0
   18.2130   31.0820  125.7150 O   0  0  0  0  0  0  0  0  0  0  0  0
   18.7040   30.1070  127.6770 C   0  0  0  0  0  0  0  0  0  0  0  0
   17.8240   30.1490  126.6230 C   0  0  0  0  0  0  0  0  0  0  0  0
  1  6  1  0  0  0  0
  2  1  2  0  0  0  0
  2  3  1  0  0  0  0
  3  4  2  0  0  0  0
  4  5  1  0  0  0  0
  5 22  1  0  0  0  0
  6  5  2  0  0  0  0
  7  1  1  0  0  0  0
  7 10  1  0  0  0  0
  8  9  2  0  0  0  0
  9  7  1  0  0  0  0
 11  9  1  0  0  0  0
 11 12  1  0  0  0  0
 13 15  1  0  0  0  0
 13 11  2  0  0  0  0
 14 16  1  0  0  0  0
 14 12  2  0  0  0  0
 15 14  1  0  0  0  0
 16 17  1  0  0  0  0
 17 19  2  0  0  0  0
 18 20  1  0  0  0  0
 18 16  2  0  0  0  0
 20 21  2  0  0  0  0
 21 19  1  0  0  0  0
 22 24  2  0  0  0  0
 22 23  2  0  0  0  0
 25 27  1  0  0  0  0
 25 22  1  0  0  0  0
 26 25  1  0  0  0  0
 27 28  1  0  0  0  0
 28 29  2  0  0  0  0
 29 31  1  0  0  0  0
 30 28  1  0  0  0  0
 30 32  1  0  0  0  0
 32 31  2  0  0  0  0
M  END
>  <minimizedAffinity>
-9.01143646

>  <CNNscore>
0.170760691

>  <CNNaffinity>
5.69262552

$$$$

 OpenBabel09052614163D

 32 35  0  0  0  0  0  0  0  0999 V2000
   15.3000   38.5570  124.6940 C   0  0  0  0  0  0  0  0  0  0  0  0
   13.9500   38.6280  124.3410 C   0  0  0  0  0  0  0  0  0  0  0  0
   13.3370   39.8640  124.0940 C   0  0  0  0  0  0  0  0  0  0  0  0
   14.0680   41.0440  124.1920 C   0  0  0  0  0  0  0  0  0  0  0  0
   15.4180   40.9760  124.5360 C   0  0  0  0  0  0  0  0  0  0  0  0
   16.0330   39.7440  124.7970 C   0  0  0  0  0  0  0  0  0  0  0  0
   15.9870   37.3560  124.9730 N   0  0  0  0  0  0  0  0  0  0  0  0
   14.9180   36.6380  126.9010 O   0  0  0  0  0  0  0  0  0  0  0  0
   15.7900   36.4980  126.0500 C   0  0  0  0  0  0  0  0  0  0  0  0
   16.6570   37.0690  124.2740 H   0  0  0  0  0  0  0  0  0  0  0  0
   16.7240   35.3570  126.0830 C   0  0  0  0  0  0  0  0  0  0  0  0
   16.9460   34.3930  127.1080 C   0  0  0  0  0  0  0  0  0  0  0  0
   17.5190   35.0930  125.0320 N   0  0  0  0  0  0  0  0  0  0  0  0
   17.9180   33.5530  126.6140 C   0  0  0  0  0  0  0  0  0  0  0  0
   18.2590   33.9820  125.3680 O   0  0  0  0  0  0  0  0  0  0  0  0
   18.6150   32.3730  127.1070 C   0  0  0  0  0  0  0  0  0  0  0  0
   19.8460   31.9600  126.5850 C   0  0  0  0  0  0  0  0  0  0  0  0
   18.0860   31.5940  128.1340 C   0  0  0  0  0  0  0  0  0  0  0  0
   20.4780   30.8240  127.0910 C   0  0  0  0  0  0  0  0  0  0  0  0
   18.6750   30.4870  128.6500 N   0  0  0  0  0  0  0  0  0  0  0  0
   19.8600   30.1280  128.1140 C   0  0  0  0  0  0  0  0  0  0  0  0
   16.3790   42.4580  124.6740 S   0  0  0  0  0  0  0  0  0  0  0  0
   17.0970   42.6710  123.4370 O   0  0  0  0  0  0  0  0  0  0  0  0
   15.5230   43.4710  125.2500 O   0  0  0  0  0  0  0  0  0  0  0  0
   17.4810   42.0350  125.8530 N   0  0  0  0  0  0  0  0  0  0  0  0
   17.2320   42.3610  126.7870 H   0  0  0  0  0  0  0  0  0  0  0  0
   18.8980   42.0790  125.5040 C   0  0  0  0  0  0  0  0  0  0  0  0
   19.6640   41.6870  126.7130 C   0  0  0  0  0  0  0  0  0  0  0  0
   20.9720   41.8770  127.1120 C   0  0  0  0  0  0  0  0  0  0  0  0
   18.9880   40.9710  127.6590 O   0  0  0  0  0  0  0  0  0  0  0  0
   21.0980   41.2500  128.3760 C   0  0  0  0  0  0  0  0  0  0  0  0
   19.8650   40.7150  128.6640 C   0  0  0  0  0  0  0  0  0  0  0  0
  1  6  1  0  0  0  0
  1  7  1  0  0  0  0
  2  1  2  0  0  0  0
  3  4  2  0  0  0  0
  3  2  1  0  0  0  0
  4  5  1  0  0  0  0
  5 22  1  0  0  0  0
  5  6  2  0  0  0  0
  7  9  1  0  0  0  0
  9 11  1  0  0  0  0
  9  8  2  0  0  0  0
 10  7  1  0  0  0  0
 11 12  1  0  0  0  0
 13 15  1  0  0  0  0
 13 11  2  0  0  0  0
 14 16  1  0  0  0  0
 14 12  2  0  0  0  0
 15 14  1  0  0  0  0
 16 18  1  0  0  0  0
 17 19  1  0  0  0  0
 17 16  2  0  0  0  0
 18 20  2  0  0  0  0
 19 21  2  0  0  0  0
 21 20  1  0  0  0  0
 22 24  2  0  0  0  0
 22 25  1  0  0  0  0
 23 22  2  0  0  0  0
 25 26  1  0  0  0  0
 27 25  1  0  0  0  0
 27 28  1  0  0  0  0
 28 29  2  0  0  0  0
 28 30  1  0  0  0  0
 29 31  1  0  0  0  0
 30 32  1  0  0  0  0
 31 32  2  0  0  0  0
M  END
>  <minimizedAffinity>
-8.66985512

>  <CNNscore>
0.167362243

>  <CNNaffinity>
5.95016241

$$$$

 OpenBabel09052614163D

 32 35  0  0  0  0  0  0  0  0999 V2000
   15.5290   40.3410  124.4570 C   0  0  0  0  0  0  0  0  0  0  0  0
   14.2990   40.5830  123.8390 C   0  0  0  0  0  0  0  0  0  0  0  0
   13.7550   41.8740  123.8070 C   0  0  0  0  0  0  0  0  0  0  0  0
   14.4350   42.9400  124.3880 C   0  0  0  0  0  0  0  0  0  0  0  0
   15.6670   42.7030  124.9970 C   0  0  0  0  0  0  0  0  0  0  0  0
   16.2110   41.4130  125.0450 C   0  0  0  0  0  0  0  0  0  0  0  0
   16.1380   39.0710  124.5450 N   0  0  0  0  0  0  0  0  0  0  0  0
   18.2180   39.4780  123.6070 O   0  0  0  0  0  0  0  0  0  0  0  0
   17.4030   38.7040  124.0980 C   0  0  0  0  0  0  0  0  0  0  0  0
   15.6050   38.3700  125.0400 H   0  0  0  0  0  0  0  0  0  0  0  0
   17.7110   37.2740  124.2840 C   0  0  0  0  0  0  0  0  0  0  0  0
   18.5480   36.6420  125.2490 C   0  0  0  0  0  0  0  0  0  0  0  0
   17.1600   36.3460  123.4840 N   0  0  0  0  0  0  0  0  0  0  0  0
   18.4710   35.2960  124.9720 C   0  0  0  0  0  0  0  0  0  0  0  0
   17.6370   35.1270  123.9090 O   0  0  0  0  0  0  0  0  0  0  0  0
   19.0510   34.0880  125.5410 C   0  0  0  0  0  0  0  0  0  0  0  0
   19.7560   33.1610  124.7640 C   0  0  0  0  0  0  0  0  0  0  0  0
   18.9330   33.7950  126.8980 C   0  0  0  0  0  0  0  0  0  0  0  0
   20.2980   32.0180  125.3530 C   0  0  0  0  0  0  0  0  0  0  0  0
   19.4490   32.6960  127.5010 N   0  0  0  0  0  0  0  0  0  0  0  0
   20.1200   31.8320  126.7120 C   0  0  0  0  0  0  0  0  0  0  0  0
   16.5600   44.0360  125.7500 S   0  0  0  0  0  0  0  0  0  0  0  0
   17.0600   44.9120  124.7150 O   0  0  0  0  0  0  0  0  0  0  0  0
   15.7560   44.5230  126.8480 O   0  0  0  0  0  0  0  0  0  0  0  0
   17.8560   43.2310  126.4250 N   0  0  0  0  0  0  0  0  0  0  0  0
   18.4190   42.7140  125.7500 H   0  0  0  0  0  0  0  0  0  0  0  0
   17.6600   42.6000  127.7260 C   0  0  0  0  0  0  0  0  0  0  0  0
   18.9240   41.9050  128.0780 C   0  0  0  0  0  0  0  0  0  0  0  0
   20.2360   42.0610  127.6790 C   0  0  0  0  0  0  0  0  0  0  0  0
   18.8270   40.8750  128.9680 O   0  0  0  0  0  0  0  0  0  0  0  0
   20.9820   41.0770  128.3710 C   0  0  0  0  0  0  0  0  0  0  0  0
   20.0810   40.3820  129.1420 C   0  0  0  0  0  0  0  0  0  0  0  0
  1  7  1  0  0  0  0
  1  6  1  0  0  0  0
  2  1  2  0  0  0  0
  3  2  1  0  0  0  0
  3  4  2  0  0  0  0
  4  5  1  0  0  0  0
  5  6  2  0  0  0  0
  5 22  1  0  0  0  0
  7 10  1  0  0  0  0
  8  9  2  0  0  0  0
  9 11  1  0  0  0  0
  9  7  1  0  0  0  0
 11 12  1  0  0  0  0
 13 15  1  0  0  0  0
 13 11  2  0  0  0  0
 14 12  2  0  0  0  0
 14 16  1  0  0  0  0
 15 14  1  0  0  0  0
 16 18  1  0  0  0  0
 17 19  1  0  0  0  0
 17 16  2  0  0  0  0
 18 20  2  0  0  0  0
 19 21  2  0  0  0  0
 21 20  1  0  0  0  0
 22 25  1  0  0  0  0
 22 24  2  0  0  0  0
 23 22  2  0  0  0  0
 25 27  1  0  0  0  0
 26 25  1  0  0  0  0
 27 28  1  0  0  0  0
 28 30  1  0  0  0  0
 29 28  2  0  0  0  0
 29 31  1  0  0  0  0
 30 32  1  0  0  0  0
 31 32  2  0  0  0  0
M  END
>  <minimizedAffinity>
-8.67788982

>  <CNNscore>
0.1574568

>  <CNNaffinity>
5.83741808

$$$$

 OpenBabel09052614163D

 32 35  0  0  0  0  0  0  0  0999 V2000
   18.2400   39.7830  124.1590 C   0  0  0  0  0  0  0  0  0  0  0  0
   19.1000   40.2200  125.1710 C   0  0  0  0  0  0  0  0  0  0  0  0
   19.7840   39.3000  125.9760 C   0  0  0  0  0  0  0  0  0  0  0  0
   19.6220   37.9330  125.7780 C   0  0  0  0  0  0  0  0  0  0  0  0
   18.7720   37.4940  124.7640 C   0  0  0  0  0  0  0  0  0  0  0  0
   18.0740   38.4070  123.9620 C   0  0  0  0  0  0  0  0  0  0  0  0
   17.5040   40.6420  123.3150 N   0  0  0  0  0  0  0  0  0  0  0  0
   16.0460   41.6410  124.8160 O   0  0  0  0  0  0  0  0  0  0  0  0
   16.4510   41.4790  123.6690 C   0  0  0  0  0  0  0  0  0  0  0  0
   17.8240   40.6860  122.3580 H   0  0  0  0  0  0  0  0  0  0  0  0
   15.8520   42.2000  122.5300 C   0  0  0  0  0  0  0  0  0  0  0  0
   14.5860   42.0170  121.9020 C   0  0  0  0  0  0  0  0  0  0  0  0
   16.5140   43.2060  121.9330 N   0  0  0  0  0  0  0  0  0  0  0  0
   14.5380   42.9590  120.8990 C   0  0  0  0  0  0  0  0  0  0  0  0
   15.7010   43.6670  120.9230 O   0  0  0  0  0  0  0  0  0  0  0  0
   13.5670   43.3390  119.8830 C   0  0  0  0  0  0  0  0  0  0  0  0
   13.5900   42.8020  118.5910 C   0  0  0  0  0  0  0  0  0  0  0  0
   12.5590   44.2620  120.1520 C   0  0  0  0  0  0  0  0  0  0  0  0
   12.6360   43.1940  117.6500 C   0  0  0  0  0  0  0  0  0  0  0  0
   11.6170   44.6630  119.2610 N   0  0  0  0  0  0  0  0  0  0  0  0
   11.6800   44.1180  118.0290 C   0  0  0  0  0  0  0  0  0  0  0  0
   18.5400   35.7600  124.4830 S   0  0  0  0  0  0  0  0  0  0  0  0
   17.4420   35.5740  123.5620 O   0  0  0  0  0  0  0  0  0  0  0  0
   19.8450   35.1850  124.2500 O   0  0  0  0  0  0  0  0  0  0  0  0
   18.0500   35.2390  125.9910 N   0  0  0  0  0  0  0  0  0  0  0  0
   17.2800   35.7800  126.3850 H   0  0  0  0  0  0  0  0  0  0  0  0
   19.0820   34.8010  126.9260 C   0  0  0  0  0  0  0  0  0  0  0  0
   18.9890   33.3230  127.0280 C   0  0  0  0  0  0  0  0  0  0  0  0
   19.5780   32.3890  127.8560 C   0  0  0  0  0  0  0  0  0  0  0  0
   18.1740   32.6990  126.1280 O   0  0  0  0  0  0  0  0  0  0  0  0
   19.0880   31.1260  127.4430 C   0  0  0  0  0  0  0  0  0  0  0  0
   18.2380   31.3680  126.3910 C   0  0  0  0  0  0  0  0  0  0  0  0
  1  2  1  0  0  0  0
  2  3  2  0  0  0  0
  4  3  1  0  0  0  0
  5  4  2  0  0  0  0
  6  1  2  0  0  0  0
  6  5  1  0  0  0  0
  7  9  1  0  0  0  0
  7  1  1  0  0  0  0
  9  8  2  0  0  0  0
 10  7  1  0  0  0  0
 11  9  1  0  0  0  0
 12 11  1  0  0  0  0
 13 11  2  0  0  0  0
 14 15  1  0  0  0  0
 14 12  2  0  0  0  0
 15 13  1  0  0  0  0
 16 18  1  0  0  0  0
 16 14  1  0  0  0  0
 17 16  2  0  0  0  0
 19 21  2  0  0  0  0
 19 17  1  0  0  0  0
 20 18  2  0  0  0  0
 21 20  1  0  0  0  0
 22  5  1  0  0  0  0
 22 25  1  0  0  0  0
 23 22  2  0  0  0  0
 24 22  2  0  0  0  0
 25 26  1  0  0  0  0
 25 27  1  0  0  0  0
 27 28  1  0  0  0  0
 28 29  2  0  0  0  0
 30 32  1  0  0  0  0
 30 28  1  0  0  0  0
 31 29  1  0  0  0  0
 32 31  2  0  0  0  0
M  END
>  <minimizedAffinity>
-8.42710304

>  <CNNscore>
0.15021573

>  <CNNaffinity>
5.11983252

$$$$

 OpenBabel09052614163D

 32 35  0  0  0  0  0  0  0  0999 V2000
   16.1240   40.0340  123.2650 C   0  0  0  0  0  0  0  0  0  0  0  0
   16.5210   41.3170  122.8800 C   0  0  0  0  0  0  0  0  0  0  0  0
   15.5710   42.2890  122.5370 C   0  0  0  0  0  0  0  0  0  0  0  0
   14.2130   41.9910  122.5810 C   0  0  0  0  0  0  0  0  0  0  0  0
   13.8140   40.7140  122.9730 C   0  0  0  0  0  0  0  0  0  0  0  0
   14.7580   39.7340  123.3050 C   0  0  0  0  0  0  0  0  0  0  0  0
   17.0170   38.9960  123.6100 N   0  0  0  0  0  0  0  0  0  0  0  0
   18.8800   40.1880  124.3030 O   0  0  0  0  0  0  0  0  0  0  0  0
   18.3250   39.1210  124.0670 C   0  0  0  0  0  0  0  0  0  0  0  0
   16.6320   38.0630  123.5690 H   0  0  0  0  0  0  0  0  0  0  0  0
   19.0100   37.8310  124.2740 C   0  0  0  0  0  0  0  0  0  0  0  0
   18.4720   36.5650  124.6450 C   0  0  0  0  0  0  0  0  0  0  0  0
   20.3380   37.7270  124.1010 N   0  0  0  0  0  0  0  0  0  0  0  0
   19.5500   35.7100  124.6900 C   0  0  0  0  0  0  0  0  0  0  0  0
   20.6680   36.4160  124.3640 O   0  0  0  0  0  0  0  0  0  0  0  0
   19.7390   34.2980  124.9890 C   0  0  0  0  0  0  0  0  0  0  0  0
   19.1010   33.6710  126.0650 C   0  0  0  0  0  0  0  0  0  0  0  0
   20.5710   33.4960  124.2100 C   0  0  0  0  0  0  0  0  0  0  0  0
   19.3090   32.3130  126.3120 C   0  0  0  0  0  0  0  0  0  0  0  0
   20.7930   32.1740  124.4220 N   0  0  0  0  0  0  0  0  0  0  0  0
   20.1560   31.6150  125.4710 C   0  0  0  0  0  0  0  0  0  0  0  0
   12.0920   40.2990  123.0380 S   0  0  0  0  0  0  0  0  0  0  0  0
   11.5220   40.8380  124.2520 O   0  0  0  0  0  0  0  0  0  0  0  0
   11.5350   40.5820  121.7350 O   0  0  0  0  0  0  0  0  0  0  0  0
   12.1530   38.6380  123.1820 N   0  0  0  0  0  0  0  0  0  0  0  0
   11.3350   38.2320  123.6370 H   0  0  0  0  0  0  0  0  0  0  0  0
   13.4420   38.0310  123.5000 C   0  0  0  0  0  0  0  0  0  0  0  0
   13.3260   37.4270  124.8510 C   0  0  0  0  0  0  0  0  0  0  0  0
   12.9700   37.9260  126.0880 C   0  0  0  0  0  0  0  0  0  0  0  0
   13.6390   36.1030  124.9570 O   0  0  0  0  0  0  0  0  0  0  0  0
   13.0630   36.8440  126.9960 C   0  0  0  0  0  0  0  0  0  0  0  0
   13.4730   35.7580  126.2600 C   0  0  0  0  0  0  0  0  0  0  0  0
  1  6  1  0  0  0  0
  1  7  1  0  0  0  0
  2  1  2  0  0  0  0
  3  4  2  0  0  0  0
  3  2  1  0  0  0  0
  4  5  1  0  0  0  0
  5 22  1  0  0  0  0
  5  6  2  0  0  0  0
  7  9  1  0  0  0  0
  9 11  1  0  0  0  0
  9  8  2  0  0  0  0
 10  7  1  0  0  0  0
 11 12  1  0  0  0  0
 12 14  2  0  0  0  0
 13 11  2  0  0  0  0
 13 15  1  0  0  0  0
 14 16  1  0  0  0  0
 15 14  1  0  0  0  0
 16 17  1  0  0  0  0
 17 19  2  0  0  0  0
 18 20  1  0  0  0  0
 18 16  2  0  0  0  0
 20 21  2  0  0  0  0
 21 19  1  0  0  0  0
 22 25  1  0  0  0  0
 22 23  2  0  0  0  0
 24 22  2  0  0  0  0
 25 27  1  0  0  0  0
 25 26  1  0  0  0  0
 27 28  1  0  0  0  0
 28 30  1  0  0  0  0
 28 29  2  0  0  0  0
 29 31  1  0  0  0  0
 30 32  1  0  0  0  0
 32 31  2  0  0  0  0
M  END
>  <minimizedAffinity>
-9.19596672

>  <CNNscore>
0.149025023

>  <CNNaffinity>
5.45131874

$$$$

 OpenBabel09052614163D

 32 35  0  0  0  0  0  0  0  0999 V2000
   16.0970   38.5330  124.3170 C   0  0  0  0  0  0  0  0  0  0  0  0
   16.2380   39.7090  125.0580 C   0  0  0  0  0  0  0  0  0  0  0  0
   15.5830   40.8850  124.6690 C   0  0  0  0  0  0  0  0  0  0  0  0
   14.7750   40.8980  123.5370 C   0  0  0  0  0  0  0  0  0  0  0  0
   14.6250   39.7240  122.8000 C   0  0  0  0  0  0  0  0  0  0  0  0
   15.2870   38.5480  123.1770 C   0  0  0  0  0  0  0  0  0  0  0  0
   16.7330   37.3130  124.6340 N   0  0  0  0  0  0  0  0  0  0  0  0
   18.9190   37.7400  123.9900 O   0  0  0  0  0  0  0  0  0  0  0  0
   18.0660   36.9750  124.4290 C   0  0  0  0  0  0  0  0  0  0  0  0
   16.1560   36.6360  125.1130 H   0  0  0  0  0  0  0  0  0  0  0  0
   18.3970   35.5890  124.8120 C   0  0  0  0  0  0  0  0  0  0  0  0
   18.4270   34.9860  126.1020 C   0  0  0  0  0  0  0  0  0  0  0  0
   18.7190   34.6800  123.8770 N   0  0  0  0  0  0  0  0  0  0  0  0
   18.7910   33.6760  125.8830 C   0  0  0  0  0  0  0  0  0  0  0  0
   18.9680   33.5010  124.5450 O   0  0  0  0  0  0  0  0  0  0  0  0
   19.0120   32.5090  126.7250 C   0  0  0  0  0  0  0  0  0  0  0  0
   18.1710   32.1930  127.7980 C   0  0  0  0  0  0  0  0  0  0  0  0
   20.0790   31.6420  126.4990 C   0  0  0  0  0  0  0  0  0  0  0  0
   18.4190   31.0620  128.5770 C   0  0  0  0  0  0  0  0  0  0  0  0
   20.3470   30.5340  127.2350 N   0  0  0  0  0  0  0  0  0  0  0  0
   19.5090   30.2710  128.2580 C   0  0  0  0  0  0  0  0  0  0  0  0
   13.6050   39.7040  121.3510 S   0  0  0  0  0  0  0  0  0  0  0  0
   13.5690   41.0330  120.7820 O   0  0  0  0  0  0  0  0  0  0  0  0
   13.9870   38.5460  120.5760 O   0  0  0  0  0  0  0  0  0  0  0  0
   12.1050   39.3730  122.0010 N   0  0  0  0  0  0  0  0  0  0  0  0
   11.3310   39.5200  121.3520 H   0  0  0  0  0  0  0  0  0  0  0  0
   11.8690   39.7520  123.3910 C   0  0  0  0  0  0  0  0  0  0  0  0
   11.1110   41.0280  123.3790 C   0  0  0  0  0  0  0  0  0  0  0  0
   10.6640   41.8760  124.3730 C   0  0  0  0  0  0  0  0  0  0  0  0
   10.7360   41.5050  122.1570 O   0  0  0  0  0  0  0  0  0  0  0  0
    9.9880   42.9340  123.7190 C   0  0  0  0  0  0  0  0  0  0  0  0
   10.0590   42.6630  122.3730 C   0  0  0  0  0  0  0  0  0  0  0  0
  1  7  1  0  0  0  0
  1  2  1  0  0  0  0
  3  2  2  0  0  0  0
  4  3  1  0  0  0  0
  5  6  1  0  0  0  0
  5  4  2  0  0  0  0
  6  1  2  0  0  0  0
  7 10  1  0  0  0  0
  8  9  2  0  0  0  0
  9  7  1  0  0  0  0
  9 11  1  0  0  0  0
 11 12  1  0  0  0  0
 13 15  1  0  0  0  0
 13 11  2  0  0  0  0
 14 12  2  0  0  0  0
 14 16  1  0  0  0  0
 15 14  1  0  0  0  0
 16 17  1  0  0  0  0
 17 19  2  0  0  0  0
 18 16  2  0  0  0  0
 18 20  1  0  0  0  0
 20 21  2  0  0  0  0
 21 19  1  0  0  0  0
 22 25  1  0  0  0  0
 22  5  1  0  0  0  0
 23 22  2  0  0  0  0
 24 22  2  0  0  0  0
 25 27  1  0  0  0  0
 26 25  1  0  0  0  0
 28 27  1  0  0  0  0
 28 29  2  0  0  0  0
 30 32  1  0  0  0  0
 30 28  1  0  0  0  0
 31 29  1  0  0  0  0
 32 31  2  0  0  0  0
M  END
>  <minimizedAffinity>
-8.94836903

>  <CNNscore>
0.139864594

>  <CNNaffinity>
5.89126825

$$$$

 OpenBabel09052614163D

 32 35  0  0  0  0  0  0  0  0999 V2000
   16.0540   38.4910  124.3470 C   0  0  0  0  0  0  0  0  0  0  0  0
   16.3910   39.7160  124.9280 C   0  0  0  0  0  0  0  0  0  0  0  0
   15.7560   40.8990  124.5270 C   0  0  0  0  0  0  0  0  0  0  0  0
   14.7720   40.8700  123.5430 C   0  0  0  0  0  0  0  0  0  0  0  0
   14.4280   39.6480  122.9680 C   0  0  0  0  0  0  0  0  0  0  0  0
   15.0680   38.4630  123.3550 C   0  0  0  0  0  0  0  0  0  0  0  0
   16.6570   37.2600  124.6840 N   0  0  0  0  0  0  0  0  0  0  0  0
   15.3050   36.5340  126.4220 O   0  0  0  0  0  0  0  0  0  0  0  0
   16.2840   36.3830  125.6980 C   0  0  0  0  0  0  0  0  0  0  0  0
   17.4100   36.9660  124.0780 H   0  0  0  0  0  0  0  0  0  0  0  0
   17.1670   35.2090  125.8280 C   0  0  0  0  0  0  0  0  0  0  0  0
   17.2710   34.2620  126.8870 C   0  0  0  0  0  0  0  0  0  0  0  0
   18.0310   34.8920  124.8490 N   0  0  0  0  0  0  0  0  0  0  0  0
   18.2460   33.3750  126.4890 C   0  0  0  0  0  0  0  0  0  0  0  0
   18.6990   33.7620  125.2640 O   0  0  0  0  0  0  0  0  0  0  0  0
   18.8560   32.1830  127.0600 C   0  0  0  0  0  0  0  0  0  0  0  0
   20.0460   31.6420  126.5620 C   0  0  0  0  0  0  0  0  0  0  0  0
   18.2780   31.5190  128.1400 C   0  0  0  0  0  0  0  0  0  0  0  0
   20.5960   30.4990  127.1430 C   0  0  0  0  0  0  0  0  0  0  0  0
   18.7870   30.4080  128.7290 N   0  0  0  0  0  0  0  0  0  0  0  0
   19.9360   29.9240  128.2140 C   0  0  0  0  0  0  0  0  0  0  0  0
   13.1820   39.5740  121.7100 S   0  0  0  0  0  0  0  0  0  0  0  0
   13.7740   39.0810  120.4870 O   0  0  0  0  0  0  0  0  0  0  0  0
   12.0140   38.9610  122.3010 O   0  0  0  0  0  0  0  0  0  0  0  0
   12.8200   41.1900  121.5010 N   0  0  0  0  0  0  0  0  0  0  0  0
   11.8350   41.4150  121.6420 H   0  0  0  0  0  0  0  0  0  0  0  0
   13.5030   41.9040  120.4260 C   0  0  0  0  0  0  0  0  0  0  0  0
   13.2090   43.3490  120.5980 C   0  0  0  0  0  0  0  0  0  0  0  0
   14.0020   44.4680  120.7510 C   0  0  0  0  0  0  0  0  0  0  0  0
   11.8910   43.7040  120.6350 O   0  0  0  0  0  0  0  0  0  0  0  0
   13.1200   45.5670  120.8790 C   0  0  0  0  0  0  0  0  0  0  0  0
   11.8480   45.0510  120.8020 C   0  0  0  0  0  0  0  0  0  0  0  0
  1  7  1  0  0  0  0
  1  2  1  0  0  0  0
  3  2  2  0  0  0  0
  4  3  1  0  0  0  0
  5  6  1  0  0  0  0
  5  4  2  0  0  0  0
  6  1  2  0  0  0  0
  7  9  1  0  0  0  0
  9 11  1  0  0  0  0
  9  8  2  0  0  0  0
 10  7  1  0  0  0  0
 11 12  1  0  0  0  0
 13 15  1  0  0  0  0
 13 11  2  0  0  0  0
 14 12  2  0  0  0  0
 14 16  1  0  0  0  0
 15 14  1  0  0  0  0
 16 18  1  0  0  0  0
 17 16  2  0  0  0  0
 17 19  1  0  0  0  0
 18 20  2  0  0  0  0
 19 21  2  0  0  0  0
 21 20  1  0  0  0  0
 22 24  2  0  0  0  0
 22  5  1  0  0  0  0
 23 22  2  0  0  0  0
 25 26  1  0  0  0  0
 25 22  1  0  0  0  0
 27 28  1  0  0  0  0
 27 25  1  0  0  0  0
 28 30  1  0  0  0  0
 28 29  2  0  0  0  0
 29 31  1  0  0  0  0
 30 32  1  0  0  0  0
 32 31  2  0  0  0  0
M  END
>  <minimizedAffinity>
-8.1960659

>  <CNNscore>
0.136320055

>  <CNNaffinity>
5.73131227

$$$$
