
 OpenBabel09052614023D

 29 32  0  0  1  0  0  0  0  0999 V2000
   16.0590   38.1930  123.6820 C   0  0  0  0  0  0  0  0  0  0  0  0
   17.4490   38.0990  123.6550 C   0  0  0  0  0  0  0  0  0  0  0  0
   18.1120   37.0660  124.3350 C   0  0  0  0  0  0  0  0  0  0  0  0
   17.3950   36.1050  125.0470 C   0  0  0  0  0  0  0  0  0  0  0  0
   16.0000   36.2010  125.0780 C   0  0  0  0  0  0  0  0  0  0  0  0
   15.3390   37.2310  124.3980 C   0  0  0  0  0  0  0  0  0  0  0  0
   15.3140   39.1960  123.0250 N   0  0  0  0  0  0  0  0  0  0  0  0
   14.2420   40.2280  124.7980 O   0  0  0  0  0  0  0  0  0  0  0  0
   14.4840   40.1530  123.5970 C   0  0  0  0  0  0  0  0  0  0  0  0
   15.3620   39.1830  122.0180 H   0  0  0  0  0  0  0  0  0  0  0  0
   13.8940   41.0730  122.6300 C   0  0  0  0  0  0  0  0  0  0  0  0
   12.5950   41.3290  122.2170 C   0  0  0  0  0  0  0  0  0  0  0  0
   14.7450   41.8910  121.9290 O   0  0  0  0  0  0  0  0  0  0  0  0
   12.6650   42.3520  121.2370 C   0  0  0  0  0  0  0  0  0  0  0  0
   13.9960   42.6570  121.1010 C   0  0  0  0  0  0  0  0  0  0  0  0
   17.9910   35.0550  125.7780 N   0  0  0  0  0  0  0  0  0  0  0  0
   17.5010   34.4460  126.9120 C   0  0  0  0  0  0  0  0  0  0  0  0
   16.5400   34.8590  127.5570 O   0  0  0  0  0  0  0  0  0  0  0  0
   18.9470   34.8600  125.5460 H   0  0  0  0  0  0  0  0  0  0  0  0
   18.1760   33.2860  127.2990 N   0  0  0  0  0  0  0  0  0  0  0  0
   17.4370   32.3920  128.1960 C   0  0  0  0  0  0  0  0  0  0  0  0
   19.4530   32.7840  126.7540 C   0  0  2  0  0  0  0  0  0  0  0  0
   18.0610   31.0130  128.3380 C   0  0  0  0  0  0  0  0  0  0  0  0
   19.2450   32.1900  125.3480 C   0  0  0  0  0  0  0  0  0  0  0  0
   20.2140   31.7910  127.6960 C   0  0  1  0  0  0  0  0  0  0  0  0
   19.4290   31.1420  128.7060 O   0  0  0  0  0  0  0  0  0  0  0  0
   20.5590   31.7750  124.6820 C   0  0  0  0  0  0  0  0  0  0  0  0
   20.9840   30.7060  126.9290 C   0  0  0  0  0  0  0  0  0  0  0  0
   21.6120   31.2580  125.6600 C   0  0  0  0  0  0  0  0  0  0  0  0
  1  6  1  0  0  0  0
  2  1  2  0  0  0  0
  2  3  1  0  0  0  0
  3  4  2  0  0  0  0
  4  5  1  0  0  0  0
  4 16  1  0  0  0  0
  6  5  2  0  0  0  0
  7  9  1  0  0  0  0
  7  1  1  0  0  0  0
  9  8  2  0  0  0  0
 10  7  1  0  0  0  0
 11  9  1  0  0  0  0
 12 11  2  0  0  0  0
 13 11  1  0  0  0  0
 14 12  1  0  0  0  0
 15 14  2  0  0  0  0
 15 13  1  0  0  0  0
 16 17  1  0  0  0  0
 17 20  1  0  0  0  0
 17 18  2  0  0  0  0
 19 16  1  0  0  0  0
 20 21  1  0  0  0  0
 21 23  1  0  0  0  0
 22 24  1  6  0  0  0
 22 20  1  0  0  0  0
 22 25  1  0  0  0  0
 23 26  1  0  0  0  0
 25 28  1  6  0  0  0
 25 26  1  0  0  0  0
 27 24  1  0  0  0  0
 27 29  1  0  0  0  0
 29 28  1  0  0  0  0
M  END
>  <minimizedAffinity>
-7.00762796

>  <CNNscore>
0.335029304

>  <CNNaffinity>
5.89280272

$$$$

 OpenBabel09052614023D

 29 32  0  0  1  0  0  0  0  0999 V2000
   17.9580   39.9690  125.3760 C   0  0  0  0  0  0  0  0  0  0  0  0
   19.2890   39.5550  125.4070 C   0  0  0  0  0  0  0  0  0  0  0  0
   19.6190   38.1930  125.3380 C   0  0  0  0  0  0  0  0  0  0  0  0
   18.6240   37.2220  125.2300 C   0  0  0  0  0  0  0  0  0  0  0  0
   17.2890   37.6350  125.2030 C   0  0  0  0  0  0  0  0  0  0  0  0
   16.9590   38.9940  125.2690 C   0  0  0  0  0  0  0  0  0  0  0  0
   17.5390   41.3140  125.4380 N   0  0  0  0  0  0  0  0  0  0  0  0
   17.2900   41.8390  123.1970 O   0  0  0  0  0  0  0  0  0  0  0  0
   17.2110   42.1550  124.3800 C   0  0  0  0  0  0  0  0  0  0  0  0
   17.5180   41.7210  126.3600 H   0  0  0  0  0  0  0  0  0  0  0  0
   16.7730   43.4830  124.7980 C   0  0  0  0  0  0  0  0  0  0  0  0
   16.4760   44.0540  126.0270 C   0  0  0  0  0  0  0  0  0  0  0  0
   16.5800   44.4260  123.8190 O   0  0  0  0  0  0  0  0  0  0  0  0
   16.1020   45.3990  125.7800 C   0  0  0  0  0  0  0  0  0  0  0  0
   16.1840   45.5730  124.4210 C   0  0  0  0  0  0  0  0  0  0  0  0
   18.8770   35.8340  125.1850 N   0  0  0  0  0  0  0  0  0  0  0  0
   19.1760   35.0070  126.2430 C   0  0  0  0  0  0  0  0  0  0  0  0
   19.4410   35.4030  127.3760 O   0  0  0  0  0  0  0  0  0  0  0  0
   19.0260   35.4550  124.2680 H   0  0  0  0  0  0  0  0  0  0  0  0
   19.1540   33.6410  125.9520 N   0  0  0  0  0  0  0  0  0  0  0  0
   19.8040   33.2480  124.6990 C   0  0  0  0  0  0  0  0  0  0  0  0
   18.7220   32.5540  126.8540 C   0  0  2  0  0  0  0  0  0  0  0  0
   20.0400   31.7510  124.5730 C   0  0  0  0  0  0  0  0  0  0  0  0
   19.7820   32.3010  127.9430 C   0  0  0  0  0  0  0  0  0  0  0  0
   18.3140   31.2290  126.1230 C   0  0  1  0  0  0  0  0  0  0  0  0
   18.8190   31.0540  124.7920 O   0  0  0  0  0  0  0  0  0  0  0  0
   19.3270   31.2750  128.9830 C   0  0  0  0  0  0  0  0  0  0  0  0
   18.6630   29.9680  126.9270 C   0  0  0  0  0  0  0  0  0  0  0  0
   18.4330   30.1740  128.4160 C   0  0  0  0  0  0  0  0  0  0  0  0
  1  2  1  0  0  0  0
  1  7  1  0  0  0  0
  3  2  2  0  0  0  0
  4  3  1  0  0  0  0
  5  4  2  0  0  0  0
  5  6  1  0  0  0  0
  6  1  2  0  0  0  0
  7 10  1  0  0  0  0
  8  9  2  0  0  0  0
  9 11  1  0  0  0  0
  9  7  1  0  0  0  0
 11 12  2  0  0  0  0
 13 15  1  0  0  0  0
 13 11  1  0  0  0  0
 14 12  1  0  0  0  0
 15 14  2  0  0  0  0
 16  4  1  0  0  0  0
 16 17  1  0  0  0  0
 17 18  2  0  0  0  0
 19 16  1  0  0  0  0
 20 17  1  0  0  0  0
 20 22  1  0  0  0  0
 21 20  1  0  0  0  0
 22 24  1  1  0  0  0
 23 21  1  0  0  0  0
 23 26  1  0  0  0  0
 24 27  1  0  0  0  0
 25 22  1  0  0  0  0
 25 28  1  1  0  0  0
 26 25  1  0  0  0  0
 28 29  1  0  0  0  0
 29 27  1  0  0  0  0
M  END
>  <minimizedAffinity>
-7.96945381

>  <CNNscore>
0.26336962

>  <CNNaffinity>
5.52670288

$$$$

 OpenBabel09052614023D

 29 32  0  0  1  0  0  0  0  0999 V2000
   17.9960   34.5760  126.6700 C   0  0  0  0  0  0  0  0  0  0  0  0
   16.6260   34.8060  126.5610 C   0  0  0  0  0  0  0  0  0  0  0  0
   16.1400   35.9290  125.8750 C   0  0  0  0  0  0  0  0  0  0  0  0
   17.0160   36.8380  125.2810 C   0  0  0  0  0  0  0  0  0  0  0  0
   18.3900   36.6100  125.3950 C   0  0  0  0  0  0  0  0  0  0  0  0
   18.8760   35.4880  126.0770 C   0  0  0  0  0  0  0  0  0  0  0  0
   18.5690   33.4730  127.3390 N   0  0  0  0  0  0  0  0  0  0  0  0
   18.2980   31.7810  125.7830 O   0  0  0  0  0  0  0  0  0  0  0  0
   18.7110   32.1710  126.8710 C   0  0  0  0  0  0  0  0  0  0  0  0
   18.8700   33.6470  128.2850 H   0  0  0  0  0  0  0  0  0  0  0  0
   19.3900   31.2800  127.8060 C   0  0  0  0  0  0  0  0  0  0  0  0
   20.1450   30.1260  127.6560 C   0  0  0  0  0  0  0  0  0  0  0  0
   19.3020   31.5760  129.1440 O   0  0  0  0  0  0  0  0  0  0  0  0
   20.5390   29.7170  128.9560 C   0  0  0  0  0  0  0  0  0  0  0  0
   20.0010   30.6350  129.8230 C   0  0  0  0  0  0  0  0  0  0  0  0
   16.6040   38.0030  124.6010 N   0  0  0  0  0  0  0  0  0  0  0  0
   16.2000   39.1950  125.1590 C   0  0  0  0  0  0  0  0  0  0  0  0
   15.9720   39.3550  126.3560 O   0  0  0  0  0  0  0  0  0  0  0  0
   16.4200   37.8860  123.6220 H   0  0  0  0  0  0  0  0  0  0  0  0
   16.0650   40.2560  124.2590 N   0  0  0  0  0  0  0  0  0  0  0  0
   17.2960   40.9920  123.9580 C   0  0  0  0  0  0  0  0  0  0  0  0
   14.8730   40.5800  123.4500 C   0  0  2  0  0  0  0  0  0  0  0  0
   17.1800   41.9150  122.7550 C   0  0  0  0  0  0  0  0  0  0  0  0
   14.7200   39.5790  122.2890 C   0  0  0  0  0  0  0  0  0  0  0  0
   14.8140   42.0630  122.9490 C   0  0  1  0  0  0  0  0  0  0  0  0
   16.0590   42.7760  122.9190 O   0  0  0  0  0  0  0  0  0  0  0  0
   13.4280   39.7890  121.4960 C   0  0  0  0  0  0  0  0  0  0  0  0
   14.1590   42.2050  121.5680 C   0  0  0  0  0  0  0  0  0  0  0  0
   12.9880   41.2490  121.4050 C   0  0  0  0  0  0  0  0  0  0  0  0
  1  7  1  0  0  0  0
  2  1  1  0  0  0  0
  3  2  2  0  0  0  0
  4  5  2  0  0  0  0
  4  3  1  0  0  0  0
  5  6  1  0  0  0  0
  6  1  2  0  0  0  0
  7 10  1  0  0  0  0
  8  9  2  0  0  0  0
  9  7  1  0  0  0  0
  9 11  1  0  0  0  0
 11 13  1  0  0  0  0
 12 11  2  0  0  0  0
 12 14  1  0  0  0  0
 13 15  1  0  0  0  0
 14 15  2  0  0  0  0
 16 17  1  0  0  0  0
 16  4  1  0  0  0  0
 17 18  2  0  0  0  0
 19 16  1  0  0  0  0
 20 17  1  0  0  0  0
 21 20  1  0  0  0  0
 22 24  1  6  0  0  0
 22 20  1  0  0  0  0
 23 26  1  0  0  0  0
 23 21  1  0  0  0  0
 25 28  1  6  0  0  0
 25 22  1  0  0  0  0
 26 25  1  0  0  0  0
 27 24  1  0  0  0  0
 29 27  1  0  0  0  0
 29 28  1  0  0  0  0
M  END
>  <minimizedAffinity>
-7.90152073

>  <CNNscore>
0.254822016

>  <CNNaffinity>
5.74796343

$$$$

 OpenBabel09052614023D

 29 32  0  0  1  0  0  0  0  0999 V2000
   16.1480   39.3180  123.1240 C   0  0  0  0  0  0  0  0  0  0  0  0
   17.3650   39.5770  123.7540 C   0  0  0  0  0  0  0  0  0  0  0  0
   18.2150   38.5260  124.1310 C   0  0  0  0  0  0  0  0  0  0  0  0
   17.8660   37.2000  123.8790 C   0  0  0  0  0  0  0  0  0  0  0  0
   16.6440   36.9390  123.2520 C   0  0  0  0  0  0  0  0  0  0  0  0
   15.7960   37.9880  122.8730 C   0  0  0  0  0  0  0  0  0  0  0  0
   15.2370   40.3130  122.7110 N   0  0  0  0  0  0  0  0  0  0  0  0
   14.8910   41.4880  124.6740 O   0  0  0  0  0  0  0  0  0  0  0  0
   14.6850   41.3350  123.4740 C   0  0  0  0  0  0  0  0  0  0  0  0
   14.9190   40.2410  121.7560 H   0  0  0  0  0  0  0  0  0  0  0  0
   13.8040   42.2230  122.7210 C   0  0  0  0  0  0  0  0  0  0  0  0
   13.4130   43.5440  122.8760 C   0  0  0  0  0  0  0  0  0  0  0  0
   13.1830   41.7090  121.6100 O   0  0  0  0  0  0  0  0  0  0  0  0
   12.5300   43.8430  121.8070 C   0  0  0  0  0  0  0  0  0  0  0  0
   12.4270   42.6920  121.0660 C   0  0  0  0  0  0  0  0  0  0  0  0
   18.6540   36.0910  124.2540 N   0  0  0  0  0  0  0  0  0  0  0  0
   18.2780   35.0320  125.0490 C   0  0  0  0  0  0  0  0  0  0  0  0
   17.2350   34.9930  125.6990 O   0  0  0  0  0  0  0  0  0  0  0  0
   19.6360   36.1790  124.0650 H   0  0  0  0  0  0  0  0  0  0  0  0
   19.1750   33.9610  125.0730 N   0  0  0  0  0  0  0  0  0  0  0  0
   20.3700   34.1150  124.2390 C   0  0  0  0  0  0  0  0  0  0  0  0
   19.1370   32.7990  125.9840 C   0  0  2  0  0  0  0  0  0  0  0  0
   21.4580   33.0940  124.5310 C   0  0  0  0  0  0  0  0  0  0  0  0
   19.5910   33.2070  127.3990 C   0  0  0  0  0  0  0  0  0  0  0  0
   19.9160   31.5430  125.4650 C   0  0  1  0  0  0  0  0  0  0  0  0
   20.9130   31.7810  124.4620 O   0  0  0  0  0  0  0  0  0  0  0  0
   19.4440   32.0710  128.4150 C   0  0  0  0  0  0  0  0  0  0  0  0
   20.5690   30.7330  126.5940 C   0  0  0  0  0  0  0  0  0  0  0  0
   19.6840   30.6820  127.8280 C   0  0  0  0  0  0  0  0  0  0  0  0
  1  2  1  0  0  0  0
  2  3  2  0  0  0  0
  4  3  1  0  0  0  0
  4 16  1  0  0  0  0
  5  4  2  0  0  0  0
  6  1  2  0  0  0  0
  6  5  1  0  0  0  0
  7  1  1  0  0  0  0
  7  9  1  0  0  0  0
  9  8  2  0  0  0  0
 10  7  1  0  0  0  0
 11 12  2  0  0  0  0
 11  9  1  0  0  0  0
 13 11  1  0  0  0  0
 14 12  1  0  0  0  0
 15 13  1  0  0  0  0
 15 14  2  0  0  0  0
 16 17  1  0  0  0  0
 17 20  1  0  0  0  0
 17 18  2  0  0  0  0
 19 16  1  0  0  0  0
 20 22  1  0  0  0  0
 21 23  1  0  0  0  0
 21 20  1  0  0  0  0
 22 24  1  1  0  0  0
 24 27  1  0  0  0  0
 25 22  1  0  0  0  0
 25 28  1  1  0  0  0
 26 23  1  0  0  0  0
 26 25  1  0  0  0  0
 28 29  1  0  0  0  0
 29 27  1  0  0  0  0
M  END
>  <minimizedAffinity>
-7.80340004

>  <CNNscore>
0.242934436

>  <CNNaffinity>
5.66839266

$$$$

 OpenBabel09052614023D

 29 32  0  0  1  0  0  0  0  0999 V2000
   18.6390   36.2890  124.8550 C   0  0  0  0  0  0  0  0  0  0  0  0
   17.4420   36.4500  124.1580 C   0  0  0  0  0  0  0  0  0  0  0  0
   16.8430   37.7140  124.0430 C   0  0  0  0  0  0  0  0  0  0  0  0
   17.4340   38.8390  124.6170 C   0  0  0  0  0  0  0  0  0  0  0  0
   18.6320   38.6780  125.3190 C   0  0  0  0  0  0  0  0  0  0  0  0
   19.2310   37.4170  125.4330 C   0  0  0  0  0  0  0  0  0  0  0  0
   19.3080   35.0580  125.0170 N   0  0  0  0  0  0  0  0  0  0  0  0
   18.1110   34.0890  126.7450 O   0  0  0  0  0  0  0  0  0  0  0  0
   19.0090   34.0350  125.9100 C   0  0  0  0  0  0  0  0  0  0  0  0
   20.1270   34.9290  124.4420 H   0  0  0  0  0  0  0  0  0  0  0  0
   19.8820   32.8720  125.7860 C   0  0  0  0  0  0  0  0  0  0  0  0
   20.0210   31.6950  126.5070 C   0  0  0  0  0  0  0  0  0  0  0  0
   20.7980   32.8700  124.7640 O   0  0  0  0  0  0  0  0  0  0  0  0
   21.0540   30.9480  125.8860 C   0  0  0  0  0  0  0  0  0  0  0  0
   21.4910   31.7080  124.8300 C   0  0  0  0  0  0  0  0  0  0  0  0
   16.8790   40.1350  124.5680 N   0  0  0  0  0  0  0  0  0  0  0  0
   16.8420   41.0650  125.5820 C   0  0  0  0  0  0  0  0  0  0  0  0
   17.1410   40.8250  126.7500 O   0  0  0  0  0  0  0  0  0  0  0  0
   16.2990   40.3230  123.7710 H   0  0  0  0  0  0  0  0  0  0  0  0
   16.4380   42.3460  125.1980 N   0  0  0  0  0  0  0  0  0  0  0  0
   16.9110   43.4420  126.0480 C   0  0  0  0  0  0  0  0  0  0  0  0
   15.7610   42.7170  123.9390 C   0  0  2  0  0  0  0  0  0  0  0  0
   16.7270   44.8200  125.4320 C   0  0  0  0  0  0  0  0  0  0  0  0
   16.7530   42.6780  122.7600 C   0  0  0  0  0  0  0  0  0  0  0  0
   14.9830   44.0750  123.9980 C   0  0  1  0  0  0  0  0  0  0  0  0
   15.3720   44.9880  125.0330 O   0  0  0  0  0  0  0  0  0  0  0  0
   16.0740   42.9250  121.4110 C   0  0  0  0  0  0  0  0  0  0  0  0
   15.0050   44.8380  122.6650 C   0  0  0  0  0  0  0  0  0  0  0  0
   14.8950   43.8930  121.4790 C   0  0  0  0  0  0  0  0  0  0  0  0
  1  7  1  0  0  0  0
  1  6  1  0  0  0  0
  2  1  2  0  0  0  0
  3  2  1  0  0  0  0
  3  4  2  0  0  0  0
  4  5  1  0  0  0  0
  5  6  2  0  0  0  0
  7  9  1  0  0  0  0
  9  8  2  0  0  0  0
 10  7  1  0  0  0  0
 11  9  1  0  0  0  0
 11 12  2  0  0  0  0
 13 15  1  0  0  0  0
 13 11  1  0  0  0  0
 14 12  1  0  0  0  0
 15 14  2  0  0  0  0
 16  4  1  0  0  0  0
 16 17  1  0  0  0  0
 17 18  2  0  0  0  0
 19 16  1  0  0  0  0
 20 17  1  0  0  0  0
 20 21  1  0  0  0  0
 22 24  1  6  0  0  0
 22 25  1  0  0  0  0
 22 20  1  0  0  0  0
 23 21  1  0  0  0  0
 25 28  1  6  0  0  0
 25 26  1  0  0  0  0
 26 23  1  0  0  0  0
 27 29  1  0  0  0  0
 27 24  1  0  0  0  0
 29 28  1  0  0  0  0
M  END
>  <minimizedAffinity>
-6.67560911

>  <CNNscore>
0.232415468

>  <CNNaffinity>
5.32688761

$$$$

 OpenBabel09052614023D

 29 32  0  0  1  0  0  0  0  0999 V2000
   18.5330   33.6390  127.0810 C   0  0  0  0  0  0  0  0  0  0  0  0
   17.2660   34.0360  127.5040 C   0  0  0  0  0  0  0  0  0  0  0  0
   16.6240   35.1350  126.9140 C   0  0  0  0  0  0  0  0  0  0  0  0
   17.2350   35.8510  125.8860 C   0  0  0  0  0  0  0  0  0  0  0  0
   18.5080   35.4570  125.4640 C   0  0  0  0  0  0  0  0  0  0  0  0
   19.1480   34.3590  126.0510 C   0  0  0  0  0  0  0  0  0  0  0  0
   19.2480   32.5460  127.6160 N   0  0  0  0  0  0  0  0  0  0  0  0
   18.1600   30.7460  126.6510 O   0  0  0  0  0  0  0  0  0  0  0  0
   19.0510   31.1930  127.3670 C   0  0  0  0  0  0  0  0  0  0  0  0
   19.9570   32.7820  128.2940 H   0  0  0  0  0  0  0  0  0  0  0  0
   19.9990   30.3230  128.0560 C   0  0  0  0  0  0  0  0  0  0  0  0
   20.9450   29.4050  127.6270 C   0  0  0  0  0  0  0  0  0  0  0  0
   20.0110   30.3570  129.4280 O   0  0  0  0  0  0  0  0  0  0  0  0
   21.5630   28.8730  128.7880 C   0  0  0  0  0  0  0  0  0  0  0  0
   20.9580   29.4870  129.8560 C   0  0  0  0  0  0  0  0  0  0  0  0
   16.6650   36.9830  125.2650 N   0  0  0  0  0  0  0  0  0  0  0  0
   15.3360   37.1940  124.9740 C   0  0  0  0  0  0  0  0  0  0  0  0
   14.4660   36.3310  125.0610 O   0  0  0  0  0  0  0  0  0  0  0  0
   17.3200   37.6120  124.8360 H   0  0  0  0  0  0  0  0  0  0  0  0
   15.0170   38.4920  124.5670 N   0  0  0  0  0  0  0  0  0  0  0  0
   15.7750   39.5650  125.2160 C   0  0  0  0  0  0  0  0  0  0  0  0
   14.1500   38.8720  123.4340 C   0  0  2  0  0  0  0  0  0  0  0  0
   15.6340   40.9160  124.5330 C   0  0  0  0  0  0  0  0  0  0  0  0
   14.8740   38.6340  122.0950 C   0  0  0  0  0  0  0  0  0  0  0  0
   13.5630   40.3220  123.5260 C   0  0  1  0  0  0  0  0  0  0  0  0
   14.2550   41.2370  124.3870 O   0  0  0  0  0  0  0  0  0  0  0  0
   13.9730   38.8880  120.8840 C   0  0  0  0  0  0  0  0  0  0  0  0
   13.4080   40.9950  122.1540 C   0  0  0  0  0  0  0  0  0  0  0  0
   12.9520   40.0040  121.0950 C   0  0  0  0  0  0  0  0  0  0  0  0
  1  2  1  0  0  0  0
  1  7  1  0  0  0  0
  3  2  2  0  0  0  0
  4  3  1  0  0  0  0
  5  4  2  0  0  0  0
  5  6  1  0  0  0  0
  6  1  2  0  0  0  0
  7 10  1  0  0  0  0
  8  9  2  0  0  0  0
  9  7  1  0  0  0  0
  9 11  1  0  0  0  0
 11 13  1  0  0  0  0
 12 11  2  0  0  0  0
 12 14  1  0  0  0  0
 13 15  1  0  0  0  0
 14 15  2  0  0  0  0
 16  4  1  0  0  0  0
 17 18  2  0  0  0  0
 17 16  1  0  0  0  0
 19 16  1  0  0  0  0
 20 17  1  0  0  0  0
 20 21  1  0  0  0  0
 22 24  1  6  0  0  0
 22 25  1  0  0  0  0
 22 20  1  0  0  0  0
 23 21  1  0  0  0  0
 25 28  1  6  0  0  0
 25 26  1  0  0  0  0
 26 23  1  0  0  0  0
 27 29  1  0  0  0  0
 27 24  1  0  0  0  0
 29 28  1  0  0  0  0
M  END
>  <minimizedAffinity>
-6.44761753

>  <CNNscore>
0.21603635

>  <CNNaffinity>
5.35144615

$$$$

 OpenBabel09052614023D

 29 32  0  0  1  0  0  0  0  0999 V2000
   18.0490   35.2580  125.9530 C   0  0  0  0  0  0  0  0  0  0  0  0
   19.0460   36.2140  125.7670 C   0  0  0  0  0  0  0  0  0  0  0  0
   18.7390   37.4800  125.2460 C   0  0  0  0  0  0  0  0  0  0  0  0
   17.4280   37.8150  124.9110 C   0  0  0  0  0  0  0  0  0  0  0  0
   16.4270   36.8560  125.0930 C   0  0  0  0  0  0  0  0  0  0  0  0
   16.7330   35.5930  125.6140 C   0  0  0  0  0  0  0  0  0  0  0  0
   18.2700   33.9640  126.4710 N   0  0  0  0  0  0  0  0  0  0  0  0
   19.3880   32.9370  124.7250 O   0  0  0  0  0  0  0  0  0  0  0  0
   18.9290   32.9030  125.8620 C   0  0  0  0  0  0  0  0  0  0  0  0
   17.8590   33.7820  127.3740 H   0  0  0  0  0  0  0  0  0  0  0  0
   19.0190   31.7090  126.6970 C   0  0  0  0  0  0  0  0  0  0  0  0
   18.1830   30.6230  126.9130 C   0  0  0  0  0  0  0  0  0  0  0  0
   20.1400   31.5600  127.4760 O   0  0  0  0  0  0  0  0  0  0  0  0
   18.8330   29.7790  127.8490 C   0  0  0  0  0  0  0  0  0  0  0  0
   20.0200   30.3960  128.1570 C   0  0  0  0  0  0  0  0  0  0  0  0
   17.0460   39.0550  124.3570 N   0  0  0  0  0  0  0  0  0  0  0  0
   15.9800   39.8420  124.7300 C   0  0  0  0  0  0  0  0  0  0  0  0
   15.0920   39.4810  125.4990 O   0  0  0  0  0  0  0  0  0  0  0  0
   17.4940   39.2940  123.4910 H   0  0  0  0  0  0  0  0  0  0  0  0
   15.9650   41.1230  124.1730 N   0  0  0  0  0  0  0  0  0  0  0  0
   16.9550   41.3700  123.1210 C   0  0  0  0  0  0  0  0  0  0  0  0
   14.9480   42.1700  124.3970 C   0  0  2  0  0  0  0  0  0  0  0  0
   16.7050   42.6440  122.3290 C   0  0  0  0  0  0  0  0  0  0  0  0
   13.6480   41.8310  123.6420 C   0  0  0  0  0  0  0  0  0  0  0  0
   15.4370   43.6250  124.0850 C   0  0  1  0  0  0  0  0  0  0  0  0
   16.5760   43.7440  123.2220 O   0  0  0  0  0  0  0  0  0  0  0  0
   12.5160   42.8150  123.9450 C   0  0  0  0  0  0  0  0  0  0  0  0
   14.3260   44.5240  123.5220 C   0  0  0  0  0  0  0  0  0  0  0  0
   12.9900   44.2460  124.1920 C   0  0  0  0  0  0  0  0  0  0  0  0
  1  7  1  0  0  0  0
  2  1  1  0  0  0  0
  3  2  2  0  0  0  0
  4  5  2  0  0  0  0
  4  3  1  0  0  0  0
  5  6  1  0  0  0  0
  6  1  2  0  0  0  0
  7 10  1  0  0  0  0
  8  9  2  0  0  0  0
  9  7  1  0  0  0  0
  9 11  1  0  0  0  0
 11 12  2  0  0  0  0
 11 13  1  0  0  0  0
 12 14  1  0  0  0  0
 13 15  1  0  0  0  0
 14 15  2  0  0  0  0
 16 17  1  0  0  0  0
 16  4  1  0  0  0  0
 17 18  2  0  0  0  0
 19 16  1  0  0  0  0
 20 22  1  0  0  0  0
 20 17  1  0  0  0  0
 21 20  1  0  0  0  0
 22 24  1  6  0  0  0
 23 21  1  0  0  0  0
 23 26  1  0  0  0  0
 24 27  1  0  0  0  0
 25 28  1  6  0  0  0
 25 22  1  0  0  0  0
 26 25  1  0  0  0  0
 27 29  1  0  0  0  0
 28 29  1  0  0  0  0
M  END
>  <minimizedAffinity>
-7.63864422

>  <CNNscore>
0.208476439

>  <CNNaffinity>
5.41412687

$$$$

 OpenBabel09052614023D

 29 32  0  0  1  0  0  0  0  0999 V2000
   15.3610   37.8720  124.0130 C   0  0  0  0  0  0  0  0  0  0  0  0
   14.8950   37.2600  125.1760 C   0  0  0  0  0  0  0  0  0  0  0  0
   15.6360   36.2430  125.7980 C   0  0  0  0  0  0  0  0  0  0  0  0
   16.8580   35.8260  125.2720 C   0  0  0  0  0  0  0  0  0  0  0  0
   17.3240   36.4360  124.1040 C   0  0  0  0  0  0  0  0  0  0  0  0
   16.5870   37.4520  123.4840 C   0  0  0  0  0  0  0  0  0  0  0  0
   14.6830   38.9010  123.3260 N   0  0  0  0  0  0  0  0  0  0  0  0
   12.5710   37.9900  123.0680 O   0  0  0  0  0  0  0  0  0  0  0  0
   13.3540   38.9220  122.9180 C   0  0  0  0  0  0  0  0  0  0  0  0
   15.2480   39.6940  123.0650 H   0  0  0  0  0  0  0  0  0  0  0  0
   12.9590   40.1660  122.2650 C   0  0  0  0  0  0  0  0  0  0  0  0
   13.6370   41.1120  121.5090 C   0  0  0  0  0  0  0  0  0  0  0  0
   11.6500   40.5600  122.3860 O   0  0  0  0  0  0  0  0  0  0  0  0
   12.6950   42.1080  121.1500 C   0  0  0  0  0  0  0  0  0  0  0  0
   11.5020   41.7230  121.7080 C   0  0  0  0  0  0  0  0  0  0  0  0
   17.6440   34.7930  125.8240 N   0  0  0  0  0  0  0  0  0  0  0  0
   17.4760   34.1800  127.0450 C   0  0  0  0  0  0  0  0  0  0  0  0
   16.7050   34.5760  127.9170 O   0  0  0  0  0  0  0  0  0  0  0  0
   18.5130   34.6160  125.3530 H   0  0  0  0  0  0  0  0  0  0  0  0
   18.2520   33.0350  127.2450 N   0  0  0  0  0  0  0  0  0  0  0  0
   17.6230   31.9720  128.0330 C   0  0  0  0  0  0  0  0  0  0  0  0
   19.5390   32.7170  126.5940 C   0  0  2  0  0  0  0  0  0  0  0  0
   18.3540   30.6400  127.9610 C   0  0  0  0  0  0  0  0  0  0  0  0
   19.3140   32.3040  125.1270 C   0  0  0  0  0  0  0  0  0  0  0  0
   20.4130   31.6690  127.3640 C   0  0  1  0  0  0  0  0  0  0  0  0
   19.7240   30.8270  128.2990 O   0  0  0  0  0  0  0  0  0  0  0  0
   20.6250   32.0910  124.3670 C   0  0  0  0  0  0  0  0  0  0  0  0
   21.2270   30.7630  126.4280 C   0  0  0  0  0  0  0  0  0  0  0  0
   21.7560   31.5320  125.2280 C   0  0  0  0  0  0  0  0  0  0  0  0
  1  2  1  0  0  0  0
  2  3  2  0  0  0  0
  4  3  1  0  0  0  0
  4 16  1  0  0  0  0
  5  4  2  0  0  0  0
  6  1  2  0  0  0  0
  6  5  1  0  0  0  0
  7  1  1  0  0  0  0
  9  8  2  0  0  0  0
  9  7  1  0  0  0  0
 10  7  1  0  0  0  0
 11 13  1  0  0  0  0
 11  9  1  0  0  0  0
 12 11  2  0  0  0  0
 14 12  1  0  0  0  0
 14 15  2  0  0  0  0
 15 13  1  0  0  0  0
 16 17  1  0  0  0  0
 17 20  1  0  0  0  0
 17 18  2  0  0  0  0
 19 16  1  0  0  0  0
 20 21  1  0  0  0  0
 22 24  1  6  0  0  0
 22 20  1  0  0  0  0
 22 25  1  0  0  0  0
 23 21  1  0  0  0  0
 23 26  1  0  0  0  0
 25 28  1  6  0  0  0
 25 26  1  0  0  0  0
 27 24  1  0  0  0  0
 27 29  1  0  0  0  0
 29 28  1  0  0  0  0
M  END
>  <minimizedAffinity>
-8.1788559

>  <CNNscore>
0.168676779

>  <CNNaffinity>
5.48610926

$$$$

 OpenBabel09052614023D

 29 32  0  0  1  0  0  0  0  0999 V2000
   13.0340   39.6350  124.4950 C   0  0  0  0  0  0  0  0  0  0  0  0
   14.0270   39.7380  123.5230 C   0  0  0  0  0  0  0  0  0  0  0  0
   15.2060   38.9820  123.6200 C   0  0  0  0  0  0  0  0  0  0  0  0
   15.4080   38.1070  124.6860 C   0  0  0  0  0  0  0  0  0  0  0  0
   14.4140   38.0070  125.6640 C   0  0  0  0  0  0  0  0  0  0  0  0
   13.2360   38.7590  125.5670 C   0  0  0  0  0  0  0  0  0  0  0  0
   11.8200   40.3550  124.4750 N   0  0  0  0  0  0  0  0  0  0  0  0
   12.2210   41.9180  122.8150 O   0  0  0  0  0  0  0  0  0  0  0  0
   11.4710   41.4150  123.6460 C   0  0  0  0  0  0  0  0  0  0  0  0
   11.1470   40.0910  125.1780 H   0  0  0  0  0  0  0  0  0  0  0  0
   10.1130   41.9070  123.8600 C   0  0  0  0  0  0  0  0  0  0  0  0
    9.5840   43.1360  124.2240 C   0  0  0  0  0  0  0  0  0  0  0  0
    9.0810   41.0170  123.6930 O   0  0  0  0  0  0  0  0  0  0  0  0
    8.1740   42.9840  124.2650 C   0  0  0  0  0  0  0  0  0  0  0  0
    7.9230   41.6760  123.9330 C   0  0  0  0  0  0  0  0  0  0  0  0
   16.5760   37.3370  124.8660 N   0  0  0  0  0  0  0  0  0  0  0  0
   16.6530   35.9900  125.1390 C   0  0  0  0  0  0  0  0  0  0  0  0
   15.6890   35.2910  125.4430 O   0  0  0  0  0  0  0  0  0  0  0  0
   17.4230   37.8630  124.9800 H   0  0  0  0  0  0  0  0  0  0  0  0
   17.9330   35.4370  125.0420 N   0  0  0  0  0  0  0  0  0  0  0  0
   19.0040   36.3750  124.6940 C   0  0  0  0  0  0  0  0  0  0  0  0
   18.3370   34.0720  125.4360 C   0  0  2  0  0  0  0  0  0  0  0  0
   20.4020   35.8160  124.9080 C   0  0  0  0  0  0  0  0  0  0  0  0
   18.4040   33.9510  126.9710 C   0  0  0  0  0  0  0  0  0  0  0  0
   19.6530   33.5650  124.7560 C   0  0  1  0  0  0  0  0  0  0  0  0
   20.5290   34.5720  124.2300 O   0  0  0  0  0  0  0  0  0  0  0  0
   18.6890   32.5210  127.4370 C   0  0  0  0  0  0  0  0  0  0  0  0
   20.4840   32.6480  125.6650 C   0  0  0  0  0  0  0  0  0  0  0  0
   19.5970   31.7330  126.4950 C   0  0  0  0  0  0  0  0  0  0  0  0
  1  6  1  0  0  0  0
  2  3  1  0  0  0  0
  2  1  2  0  0  0  0
  3  4  2  0  0  0  0
  4 16  1  0  0  0  0
  4  5  1  0  0  0  0
  6  5  2  0  0  0  0
  7  1  1  0  0  0  0
  7 10  1  0  0  0  0
  8  9  2  0  0  0  0
  9 11  1  0  0  0  0
  9  7  1  0  0  0  0
 11 12  2  0  0  0  0
 12 14  1  0  0  0  0
 13 11  1  0  0  0  0
 13 15  1  0  0  0  0
 15 14  2  0  0  0  0
 16 19  1  0  0  0  0
 16 17  1  0  0  0  0
 17 18  2  0  0  0  0
 20 17  1  0  0  0  0
 20 22  1  0  0  0  0
 21 23  1  0  0  0  0
 21 20  1  0  0  0  0
 22 24  1  1  0  0  0
 24 27  1  0  0  0  0
 25 22  1  0  0  0  0
 25 28  1  1  0  0  0
 26 25  1  0  0  0  0
 26 23  1  0  0  0  0
 28 29  1  0  0  0  0
 29 27  1  0  0  0  0
M  END
>  <minimizedAffinity>
-8.31335449

>  <CNNscore>
0.16756992

>  <CNNaffinity>
4.92655945

$$$$
