KRNMWFLASUZVPJ-INIZCTEOSA-N
     RDKit          3D

 29 33  0  0  0  0  0  0  0  0999 V2000
    8.0330  -24.0740   21.5780 C   0  0  0  0  0  0  0  0  0  0  0  0
    6.8990  -24.6400   22.2870 N   0  0  0  0  0  0  0  0  0  0  0  0
    7.0920  -25.7480   23.1080 C   0  0  0  0  0  0  0  0  0  0  0  0
    8.1280  -25.7130   23.9980 N   0  0  0  0  0  0  0  0  0  0  0  0
    8.3660  -26.7710   24.7960 C   0  0  0  0  0  0  0  0  0  0  0  0
    7.6970  -27.9280   24.8520 N   0  0  0  0  0  0  0  0  0  0  0  0
    6.6770  -27.9370   23.9830 C   0  0  0  0  0  0  0  0  0  0  0  0
    5.8160  -28.9890   23.8370 N   0  0  0  0  0  0  0  0  0  0  0  0
    4.8730  -28.6870   22.8920 C   0  0  0  0  0  0  0  0  0  0  0  0
    5.1460  -27.4190   22.4250 C   0  0  0  0  0  0  0  0  0  0  0  0
    6.3070  -26.9290   23.1020 C   0  0  0  0  0  0  0  0  0  0  0  0
    5.6560  -23.8790   22.4800 C   0  0  1  0  0  0  0  0  0  0  0  0
    5.9000  -22.5620   23.2340 C   0  0  0  0  0  0  0  0  0  0  0  0
    5.8690  -21.5030   22.2280 N   0  0  0  0  0  0  0  0  0  0  0  0
    6.2760  -20.1910   22.3490 C   0  0  0  0  0  0  0  0  0  0  0  0
    5.4980  -19.3300   22.7510 O   0  0  0  0  0  0  0  0  0  0  0  0
    7.5830  -19.9650   21.9970 N   0  0  0  0  0  0  0  0  0  0  0  0
    8.2920  -18.7400   21.9680 C   0  0  0  0  0  0  0  0  0  0  0  0
    9.1080  -18.2960   23.0130 C   0  0  0  0  0  0  0  0  0  0  0  0
    9.7790  -17.0710   22.9200 C   0  0  0  0  0  0  0  0  0  0  0  0
    9.6370  -16.2800   21.7830 C   0  0  0  0  0  0  0  0  0  0  0  0
   10.4660  -14.7760   21.6800 Cl  0  0  0  0  0  0  0  0  0  0  0  0
    8.8290  -16.6990   20.7320 C   0  0  0  0  0  0  0  0  0  0  0  0
    8.1620  -17.9210   20.8280 C   0  0  0  0  0  0  0  0  0  0  0  0
    7.1640  -18.4060   19.4950 Cl  0  0  0  0  0  0  0  0  0  0  0  0
    5.2580  -21.9500   20.9910 C   0  0  0  0  0  0  0  0  0  0  0  0
    5.0280  -23.4290   21.1700 C   0  0  0  0  0  0  0  0  0  0  0  0
    4.9210  -24.3520   19.9680 C   0  0  0  0  0  0  0  0  0  0  0  0
    3.6890  -24.0160   20.7470 C   0  0  0  0  0  0  0  0  0  0  0  0
  1  2  1  0
  2  3  1  0
  3  4  2  0
  4  5  1  0
  5  6  2  0
  6  7  1  0
  7  8  1  0
  8  9  1  0
  9 10  2  0
 10 11  1  0
 12  2  1  6
 12 13  1  0
 13 14  1  0
 14 15  1  0
 15 16  2  0
 15 17  1  0
 17 18  1  0
 18 19  2  0
 19 20  1  0
 20 21  2  0
 21 22  1  0
 21 23  1  0
 23 24  2  0
 24 25  1  0
 14 26  1  0
 26 27  1  0
 27 28  1  0
 28 29  1  0
 11  3  1  0
 27 12  1  0
 11  7  2  0
 24 18  1  0
 29 27  1  0
M  END
$$$$
