QFQGNTDOAIPHRN-QHCPKHFHSA-N
     RDKit          3D

 34 37  0  0  0  0  0  0  0  0999 V2000
    3.9900    4.2470   -1.0870 C   0  0  0  0  0  0  0  0  0  0  0  0
    2.8740    5.1960   -0.6960 C   0  0  0  0  0  0  0  0  0  0  0  0
    2.5950    6.0390   -1.8110 O   0  0  0  0  0  0  0  0  0  0  0  0
    3.5540    7.0850   -1.9780 C   0  0  1  0  0  0  0  0  0  0  0  0
    3.4430    7.6310   -3.4140 C   0  0  0  0  0  0  0  0  0  0  0  0
    4.4550    7.0700   -4.3900 C   0  0  0  0  0  0  0  0  0  0  0  0
    4.7690    5.7050   -4.3820 C   0  0  0  0  0  0  0  0  0  0  0  0
    5.7060    5.1910   -5.2820 C   0  0  0  0  0  0  0  0  0  0  0  0
    6.3400    6.0260   -6.2040 C   0  0  0  0  0  0  0  0  0  0  0  0
    7.2320    5.3940   -7.0270 O   0  0  0  0  0  0  0  0  0  0  0  0
    8.4660    4.9650   -6.4430 C   0  0  0  0  0  0  0  0  0  0  0  0
    9.3760    4.4350   -7.5490 C   0  0  0  0  0  0  0  0  0  0  0  0
    9.7990    5.5030   -8.4960 C   0  0  0  0  0  0  0  0  0  0  0  0
    9.7690    6.8280   -8.1230 N   0  0  0  0  0  0  0  0  0  0  0  0
   10.1970    7.4910   -9.1870 C   0  0  0  0  0  0  0  0  0  0  0  0
   10.3180    8.9220   -9.2270 C   0  0  0  0  0  0  0  0  0  0  0  0
   10.5340    9.7050  -10.3420 C   0  0  0  0  0  0  0  0  0  0  0  0
   10.6020   11.0940  -10.0280 C   0  0  0  0  0  0  0  0  0  0  0  0
   10.4430   11.3420   -8.6770 C   0  0  0  0  0  0  0  0  0  0  0  0
   10.4340   12.6340   -7.9770 C   0  0  0  0  0  0  0  0  0  0  0  0
    9.5840   13.6790   -8.3710 C   0  0  0  0  0  0  0  0  0  0  0  0
    9.5820   14.8970   -7.6850 C   0  0  0  0  0  0  0  0  0  0  0  0
   10.4290   15.0850   -6.5950 C   0  0  0  0  0  0  0  0  0  0  0  0
   11.2760   14.0570   -6.1890 C   0  0  0  0  0  0  0  0  0  0  0  0
   11.2780   12.8390   -6.8740 C   0  0  0  0  0  0  0  0  0  0  0  0
   10.2010    9.8790   -7.8130 S   0  0  0  0  0  0  0  0  0  0  0  0
   10.5090    6.6650  -10.2440 O   0  0  0  0  0  0  0  0  0  0  0  0
   10.2520    5.4030   -9.7920 C   0  0  0  0  0  0  0  0  0  0  0  0
   10.4860    4.2960  -10.7340 C   0  0  0  0  0  0  0  0  0  0  0  0
    6.0370    7.3860   -6.2130 C   0  0  0  0  0  0  0  0  0  0  0  0
    5.0990    7.9030   -5.3120 C   0  0  0  0  0  0  0  0  0  0  0  0
    3.5040    8.2590   -0.9900 C   0  0  0  0  0  0  0  0  0  0  0  0
    2.4860    8.8020   -0.5840 O   0  0  0  0  0  0  0  0  0  0  0  0
    4.7100    8.6870   -0.5680 O   0  0  0  0  0  0  0  0  0  0  0  0
  1  2  1  0
  2  3  1  0
  3  4  1  0
  4  5  1  6
  5  6  1  0
  6  7  2  0
  7  8  1  0
  8  9  2  0
  9 10  1  0
 10 11  1  0
 11 12  1  0
 12 13  1  0
 13 14  1  0
 14 15  2  0
 15 16  1  0
 16 17  2  0
 17 18  1  0
 18 19  2  0
 19 20  1  0
 20 21  2  0
 21 22  1  0
 22 23  2  0
 23 24  1  0
 24 25  2  0
 19 26  1  0
 15 27  1  0
 27 28  1  0
 28 29  1  0
  9 30  1  0
 30 31  2  0
  4 32  1  0
 32 33  2  0
 32 34  1  0
 31  6  1  0
 28 13  2  0
 26 16  1  0
 25 20  1  0
M  END
$$$$
