ZWIYUBCAUDUSLA-JQIJEIRASA-N
     RDKit          3D

 40 44  0  0  0  0  0  0  0  0999 V2000
  136.7220  109.2850   37.4470 C   0  0  0  0  0  0  0  0  0  0  0  0
  136.3080  108.5640   38.5990 O   0  0  0  0  0  0  0  0  0  0  0  0
  136.2650  109.2380   39.7950 C   0  0  0  0  0  0  0  0  0  0  0  0
  135.3050  110.2030   40.1250 C   0  0  0  0  0  0  0  0  0  0  0  0
  135.3490  110.8530   41.3650 C   0  0  0  0  0  0  0  0  0  0  0  0
  134.3470  111.8690   41.6870 C   0  0  0  0  0  0  0  0  0  0  0  0
  134.2230  112.3610   42.9270 C   0  0  0  0  0  0  0  0  0  0  0  0
  133.1640  113.3480   43.2220 C   0  0  0  0  0  0  0  0  0  0  0  0
  132.0500  112.9290   43.5230 O   0  0  0  0  0  0  0  0  0  0  0  0
  133.4980  114.6870   43.1560 N   0  0  0  0  0  0  0  0  0  0  0  0
  132.4520  115.6850   43.3440 C   0  0  0  0  0  0  0  0  0  0  0  0
  132.4110  116.6420   42.1560 C   0  0  0  0  0  0  0  0  0  0  0  0
  133.7910  117.2780   41.8930 C   0  0  0  0  0  0  0  0  0  0  0  0
  133.7200  118.1720   40.6410 C   0  0  0  0  0  0  0  0  0  0  0  0
  133.8760  117.4150   39.3430 C   0  0  0  0  0  0  0  0  0  0  0  0
  133.8370  116.0140   39.3250 C   0  0  0  0  0  0  0  0  0  0  0  0
  133.9800  115.3170   38.1240 C   0  0  0  0  0  0  0  0  0  0  0  0
  134.1630  116.0130   36.9310 C   0  0  0  0  0  0  0  0  0  0  0  0
  134.2010  117.4050   36.9360 C   0  0  0  0  0  0  0  0  0  0  0  0
  134.0570  118.1040   38.1360 C   0  0  0  0  0  0  0  0  0  0  0  0
  134.8630  116.1770   41.7600 C   0  0  0  0  0  0  0  0  0  0  0  0
  134.8400  115.2360   42.9630 C   0  0  0  0  0  0  0  0  0  0  0  0
  136.3460  110.5190   42.2830 C   0  0  0  0  0  0  0  0  0  0  0  0
  137.3000  109.5490   41.9680 C   0  0  0  0  0  0  0  0  0  0  0  0
  137.2700  108.9060   40.7270 C   0  0  0  0  0  0  0  0  0  0  0  0
  138.1750  107.9550   40.3240 O   0  0  0  0  0  0  0  0  0  0  0  0
  139.5630  108.2620   40.4530 C   0  0  0  0  0  0  0  0  0  0  0  0
  140.0050  109.0760   39.2390 C   0  0  0  0  0  0  0  0  0  0  0  0
  140.2820  110.5410   39.6010 C   0  0  0  0  0  0  0  0  0  0  0  0
  139.1490  111.4890   39.1830 C   0  0  0  0  0  0  0  0  0  0  0  0
  139.2890  112.8710   39.6740 N   0  0  0  0  0  0  0  0  0  0  0  0
  138.0730  113.2780   40.4000 C   0  0  0  0  0  0  0  0  0  0  0  0
  138.1100  114.7740   40.7390 C   0  0  0  0  0  0  0  0  0  0  0  0
  139.4100  115.1910   41.3750 C   0  0  0  0  0  0  0  0  0  0  0  0
  139.5090  116.4200   42.0410 C   0  0  0  0  0  0  0  0  0  0  0  0
  140.7220  116.8240   42.5970 C   0  0  0  0  0  0  0  0  0  0  0  0
  141.8450  116.0090   42.4870 C   0  0  0  0  0  0  0  0  0  0  0  0
  141.7570  114.7870   41.8190 C   0  0  0  0  0  0  0  0  0  0  0  0
  140.5450  114.3720   41.2460 C   0  0  0  0  0  0  0  0  0  0  0  0
  140.4620  113.0230   40.5590 C   0  0  0  0  0  0  0  0  0  0  0  0
  1  2  1  0
  2  3  1  0
  3  4  2  0
  4  5  1  0
  5  6  1  0
  6  7  2  0
  7  8  1  0
  8  9  2  0
  8 10  1  0
 10 11  1  0
 11 12  1  0
 12 13  1  0
 13 14  1  0
 14 15  1  0
 15 16  2  0
 16 17  1  0
 17 18  2  0
 18 19  1  0
 19 20  2  0
 13 21  1  0
 21 22  1  0
  5 23  2  0
 23 24  1  0
 24 25  2  0
 25 26  1  0
 26 27  1  0
 27 28  1  0
 28 29  1  0
 29 30  1  0
 30 31  1  0
 31 32  1  0
 32 33  1  0
 33 34  1  0
 34 35  2  0
 35 36  1  0
 36 37  2  0
 37 38  1  0
 38 39  2  0
 39 40  1  0
 25  3  1  0
 40 31  1  0
 22 10  1  0
 39 34  1  0
 20 15  1  0
M  END
$$$$
