ZWIYUBCAUDUSLA-JQIJEIRASA-N
     RDKit          3D

 40 44  0  0  0  0  0  0  0  0999 V2000
  140.5450  117.1940   42.3590 C   0  0  0  0  0  0  0  0  0  0  0  0
  139.1710  117.3370   42.0270 O   0  0  0  0  0  0  0  0  0  0  0  0
  138.5700  116.3150   41.3330 C   0  0  0  0  0  0  0  0  0  0  0  0
  138.9940  114.9800   41.3670 C   0  0  0  0  0  0  0  0  0  0  0  0
  138.3290  114.0050   40.6130 C   0  0  0  0  0  0  0  0  0  0  0  0
  138.7940  112.6180   40.6500 C   0  0  0  0  0  0  0  0  0  0  0  0
  139.4700  112.0790   39.6260 C   0  0  0  0  0  0  0  0  0  0  0  0
  139.8770  110.6610   39.6810 C   0  0  0  0  0  0  0  0  0  0  0  0
  140.8770  110.3700   40.3320 O   0  0  0  0  0  0  0  0  0  0  0  0
  139.0950  109.7410   39.0080 N   0  0  0  0  0  0  0  0  0  0  0  0
  139.5260  108.3490   38.9610 C   0  0  0  0  0  0  0  0  0  0  0  0
  139.6130  107.8690   37.5150 C   0  0  0  0  0  0  0  0  0  0  0  0
  138.2900  108.1010   36.7600 C   0  0  0  0  0  0  0  0  0  0  0  0
  138.4500  107.6760   35.2890 C   0  0  0  0  0  0  0  0  0  0  0  0
  139.8680  107.7670   34.7790 C   0  0  0  0  0  0  0  0  0  0  0  0
  140.6860  106.6290   34.7360 C   0  0  0  0  0  0  0  0  0  0  0  0
  141.9960  106.7160   34.2630 C   0  0  0  0  0  0  0  0  0  0  0  0
  142.5020  107.9400   33.8290 C   0  0  0  0  0  0  0  0  0  0  0  0
  141.6980  109.0770   33.8640 C   0  0  0  0  0  0  0  0  0  0  0  0
  140.3870  108.9920   34.3360 C   0  0  0  0  0  0  0  0  0  0  0  0
  137.8570  109.5760   36.8940 C   0  0  0  0  0  0  0  0  0  0  0  0
  137.8120  110.0080   38.3580 C   0  0  0  0  0  0  0  0  0  0  0  0
  137.2250  114.3670   39.8370 C   0  0  0  0  0  0  0  0  0  0  0  0
  136.7890  115.6930   39.8070 C   0  0  0  0  0  0  0  0  0  0  0  0
  137.4560  116.6740   40.5470 C   0  0  0  0  0  0  0  0  0  0  0  0
  137.1090  118.0020   40.5630 O   0  0  0  0  0  0  0  0  0  0  0  0
  135.9050  118.3820   39.8990 C   0  0  0  0  0  0  0  0  0  0  0  0
  134.8640  118.7750   40.9460 C   0  0  0  0  0  0  0  0  0  0  0  0
  133.4760  118.2150   40.6120 C   0  0  0  0  0  0  0  0  0  0  0  0
  132.9710  117.2000   41.6480 C   0  0  0  0  0  0  0  0  0  0  0  0
  133.8300  116.0150   41.8190 N   0  0  0  0  0  0  0  0  0  0  0  0
  133.8660  115.6150   43.2370 C   0  0  0  0  0  0  0  0  0  0  0  0
  134.9110  114.5180   43.4720 C   0  0  0  0  0  0  0  0  0  0  0  0
  134.7930  113.3850   42.4860 C   0  0  0  0  0  0  0  0  0  0  0  0
  135.4310  112.1630   42.7330 C   0  0  0  0  0  0  0  0  0  0  0  0
  135.3550  111.1260   41.8030 C   0  0  0  0  0  0  0  0  0  0  0  0
  134.6470  111.3050   40.6180 C   0  0  0  0  0  0  0  0  0  0  0  0
  134.0160  112.5230   40.3600 C   0  0  0  0  0  0  0  0  0  0  0  0
  134.0920  113.5770   41.2820 C   0  0  0  0  0  0  0  0  0  0  0  0
  133.3640  114.8770   41.0010 C   0  0  0  0  0  0  0  0  0  0  0  0
  1  2  1  0
  2  3  1  0
  3  4  2  0
  4  5  1  0
  5  6  1  0
  6  7  2  0
  7  8  1  0
  8  9  2  0
  8 10  1  0
 10 11  1  0
 11 12  1  0
 12 13  1  0
 13 14  1  0
 14 15  1  0
 15 16  2  0
 16 17  1  0
 17 18  2  0
 18 19  1  0
 19 20  2  0
 13 21  1  0
 21 22  1  0
  5 23  2  0
 23 24  1  0
 24 25  2  0
 25 26  1  0
 26 27  1  0
 27 28  1  0
 28 29  1  0
 29 30  1  0
 30 31  1  0
 31 32  1  0
 32 33  1  0
 33 34  1  0
 34 35  2  0
 35 36  1  0
 36 37  2  0
 37 38  1  0
 38 39  2  0
 39 40  1  0
 25  3  1  0
 40 31  1  0
 22 10  1  0
 39 34  1  0
 20 15  1  0
M  END
$$$$
