XWJGZMVWOIPRDB-CLIZBVFSSA-N
     RDKit          3D

 49 53  0  0  0  0  0  0  0  0999 V2000
   -1.5670    7.7150   28.4590 N   0  0  0  0  0  0  0  0  0  0  0  0
   -2.3530    8.6010   27.9400 C   0  0  0  0  0  0  0  0  0  0  0  0
   -3.5500    8.8010   28.5390 N   0  0  0  0  0  0  0  0  0  0  0  0
   -1.9810    9.3790   26.7290 C   0  0  0  0  0  0  0  0  0  0  0  0
   -2.8080   10.4220   26.3020 C   0  0  0  0  0  0  0  0  0  0  0  0
   -2.4690   11.1530   25.1620 C   0  0  0  0  0  0  0  0  0  0  0  0
   -1.2970   10.8570   24.4470 C   0  0  0  0  0  0  0  0  0  0  0  0
   -0.9610   11.6300   23.1950 C   0  0  0  0  0  0  0  0  0  0  0  0
   -2.0790   12.4480   22.7970 N   0  0  0  0  0  0  0  0  0  0  0  0
   -2.7080   12.3110   21.5790 C   0  0  0  0  0  0  0  0  0  0  0  0
   -2.3460   11.4970   20.7290 O   0  0  0  0  0  0  0  0  0  0  0  0
   -3.7770   13.3800   21.2740 C   0  0  2  0  0  0  0  0  0  0  0  0
   -4.4650   13.7450   22.6000 C   0  0  0  0  0  0  0  0  0  0  0  0
   -5.9350   13.3870   22.6490 C   0  0  0  0  0  0  0  0  0  0  0  0
   -6.9170   14.3840   22.5930 C   0  0  0  0  0  0  0  0  0  0  0  0
   -8.2750   14.0530   22.6220 C   0  0  0  0  0  0  0  0  0  0  0  0
   -8.6660   12.7190   22.7060 C   0  0  0  0  0  0  0  0  0  0  0  0
   -7.6950   11.7220   22.8080 C   0  0  0  0  0  0  0  0  0  0  0  0
   -6.3370   12.0510   22.7750 C   0  0  0  0  0  0  0  0  0  0  0  0
   -9.9620   12.2800   22.7270 O   0  0  0  0  0  0  0  0  0  0  0  0
  -10.9540   13.2910   22.5600 C   0  0  0  0  0  0  0  0  0  0  0  0
  -12.3190   12.6260   22.5380 C   0  0  0  0  0  0  0  0  0  0  0  0
  -13.1220   12.5260   21.4620 C   0  0  0  0  0  0  0  0  0  0  0  0
  -12.7580   12.9430   20.0660 C   0  0  0  0  0  0  0  0  0  0  0  0
  -12.0250   11.8860   19.4420 O   0  0  0  0  0  0  0  0  0  0  0  0
  -10.7700   12.2450   19.0320 C   0  0  0  0  0  0  0  0  0  0  0  0
  -10.6760   13.4400   18.3200 C   0  0  0  0  0  0  0  0  0  0  0  0
   -9.4340   13.9080   17.8870 C   0  0  0  0  0  0  0  0  0  0  0  0
   -8.2730   13.1660   18.1410 C   0  0  0  0  0  0  0  0  0  0  0  0
   -8.3790   11.9490   18.8280 C   0  0  0  0  0  0  0  0  0  0  0  0
   -9.6210   11.4870   19.2690 C   0  0  0  0  0  0  0  0  0  0  0  0
   -6.9230   13.6840   17.7060 C   0  0  0  0  0  0  0  0  0  0  0  0
   -5.7860   12.7180   18.0630 C   0  0  1  0  0  0  0  0  0  0  0  0
   -5.0640   12.3580   16.8080 N   0  0  0  0  0  0  0  0  0  0  0  0
   -4.9720   10.7410   16.3680 S   0  0  0  0  0  0  0  0  0  0  0  0
   -3.9530   10.6250   15.3420 O   0  0  0  0  0  0  0  0  0  0  0  0
   -6.3400   10.3490   16.1190 O   0  0  0  0  0  0  0  0  0  0  0  0
   -4.4020    9.9990   17.9040 C   0  0  0  0  0  0  0  0  0  0  0  0
   -5.2330    8.7790   18.2060 C   0  0  0  0  0  0  0  0  0  0  0  0
   -6.2170    8.8180   19.2020 C   0  0  0  0  0  0  0  0  0  0  0  0
   -7.0020    7.6910   19.4650 C   0  0  0  0  0  0  0  0  0  0  0  0
   -6.8070    6.5190   18.7360 C   0  0  0  0  0  0  0  0  0  0  0  0
   -5.8240    6.4670   17.7520 C   0  0  0  0  0  0  0  0  0  0  0  0
   -5.0390    7.5890   17.4890 C   0  0  0  0  0  0  0  0  0  0  0  0
   -4.7570   13.3930   18.9890 C   0  0  0  0  0  0  0  0  0  0  0  0
   -3.9560   14.2290   18.5810 O   0  0  0  0  0  0  0  0  0  0  0  0
   -4.7450   12.9130   20.2790 N   0  0  0  0  0  0  0  0  0  0  0  0
   -0.4760    9.8050   24.8820 C   0  0  0  0  0  0  0  0  0  0  0  0
   -0.8140    9.0690   26.0210 C   0  0  0  0  0  0  0  0  0  0  0  0
  1  2  2  0
  2  3  1  0
  2  4  1  0
  4  5  2  0
  5  6  1  0
  6  7  2  0
  7  8  1  0
  8  9  1  0
  9 10  1  0
 10 11  2  0
 12 10  1  1
 12 13  1  0
 13 14  1  0
 14 15  2  0
 15 16  1  0
 16 17  2  0
 17 18  1  0
 18 19  2  0
 17 20  1  0
 20 21  1  0
 21 22  1  0
 22 23  2  0
 23 24  1  0
 24 25  1  0
 25 26  1  0
 26 27  2  0
 27 28  1  0
 28 29  2  0
 29 30  1  0
 30 31  2  0
 29 32  1  0
 32 33  1  0
 33 34  1  6
 34 35  1  0
 35 36  2  0
 35 37  2  0
 35 38  1  0
 38 39  1  0
 39 40  2  0
 40 41  1  0
 41 42  2  0
 42 43  1  0
 43 44  2  0
 33 45  1  0
 45 46  2  0
 45 47  1  0
  7 48  1  0
 48 49  2  0
 49  4  1  0
 47 12  1  0
 19 14  1  0
 31 26  1  0
 44 39  1  0
M  END
$$$$
