BCZXWVFNOOINGV-UHFFFAOYSA-N
     RDKit          3D

 30 31  0  0  0  0  0  0  0  0999 V2000
   -2.8280   -6.1930  -19.9060 C   0  0  0  0  0  0  0  0  0  0  0  0
   -4.2620   -5.9970  -19.4330 C   0  0  0  0  0  0  0  0  0  0  0  0
   -5.1180   -5.2190  -20.4440 C   0  0  1  0  0  0  0  0  0  0  0  0
   -6.6070   -5.6050  -20.3090 C   0  0  0  0  0  0  0  0  0  0  0  0
   -6.9600   -6.8590  -21.0760 C   0  0  0  0  0  0  0  0  0  0  0  0
   -6.1700   -8.0070  -20.9950 C   0  0  0  0  0  0  0  0  0  0  0  0
   -6.4580   -9.1250  -21.7880 C   0  0  0  0  0  0  0  0  0  0  0  0
   -7.5190   -9.1000  -22.7020 C   0  0  0  0  0  0  0  0  0  0  0  0
   -7.8470  -10.1270  -23.5500 O   0  0  0  0  0  0  0  0  0  0  0  0
   -6.7930  -10.7000  -24.3120 C   0  0  0  0  0  0  0  0  0  0  0  0
   -8.3200   -7.9500  -22.7920 C   0  0  0  0  0  0  0  0  0  0  0  0
   -9.4000   -7.8030  -23.8350 C   0  0  0  0  0  0  0  0  0  0  0  0
   -8.9170   -8.1860  -25.1460 N   0  0  0  0  0  0  0  0  0  0  0  0
   -9.7470   -8.3770  -26.2250 C   0  0  0  0  0  0  0  0  0  0  0  0
  -10.9710   -8.2800  -26.2040 O   0  0  0  0  0  0  0  0  0  0  0  0
   -9.0530   -8.6600  -27.5050 C   0  0  0  0  0  0  0  0  0  0  0  0
   -7.6620   -8.5680  -27.6070 C   0  0  0  0  0  0  0  0  0  0  0  0
   -7.0410   -8.8360  -28.8290 C   0  0  0  0  0  0  0  0  0  0  0  0
   -7.7970   -9.1870  -29.9560 C   0  0  0  0  0  0  0  0  0  0  0  0
   -7.0560   -9.4120  -31.0800 O   0  0  0  0  0  0  0  0  0  0  0  0
   -7.2680   -8.5610  -32.1930 C   0  0  0  0  0  0  0  0  0  0  0  0
   -6.1240   -8.4940  -32.9090 F   0  0  0  0  0  0  0  0  0  0  0  0
   -8.2380   -9.0430  -32.9980 F   0  0  0  0  0  0  0  0  0  0  0  0
   -7.5890   -7.3110  -31.7960 F   0  0  0  0  0  0  0  0  0  0  0  0
   -9.1850   -9.2890  -29.8420 C   0  0  0  0  0  0  0  0  0  0  0  0
   -9.8110   -9.0340  -28.6170 C   0  0  0  0  0  0  0  0  0  0  0  0
   -8.0530   -6.8590  -21.9500 C   0  0  0  0  0  0  0  0  0  0  0  0
   -4.9760   -3.7280  -20.2120 C   0  0  0  0  0  0  0  0  0  0  0  0
   -4.6440   -3.1980  -19.1640 O   0  0  0  0  0  0  0  0  0  0  0  0
   -5.3520   -3.0090  -21.2880 O   0  0  0  0  0  0  0  0  0  0  0  0
  1  2  1  0
  3  2  1  1
  3  4  1  0
  4  5  1  0
  5  6  2  0
  6  7  1  0
  7  8  2  0
  8  9  1  0
  9 10  1  0
  8 11  1  0
 11 12  1  0
 12 13  1  0
 13 14  1  0
 14 15  2  0
 14 16  1  0
 16 17  2  0
 17 18  1  0
 18 19  2  0
 19 20  1  0
 20 21  1  0
 21 22  1  0
 21 23  1  0
 21 24  1  0
 19 25  1  0
 25 26  2  0
 11 27  2  0
  3 28  1  0
 28 29  2  0
 28 30  1  0
 27  5  1  0
 26 16  1  0
M  END
$$$$
