PUPKZNCFZQRDIJ-UHFFFAOYSA-N
     RDKit          3D

 30 34  0  0  0  0  0  0  0  0999 V2000
   -5.7320   16.2740   20.0540 C   0  0  0  0  0  0  0  0  0  0  0  0
   -6.8070   15.3350   19.8730 N   0  0  0  0  0  0  0  0  0  0  0  0
   -8.1370   15.5220   20.0980 C   0  0  0  0  0  0  0  0  0  0  0  0
   -8.7030   14.3120   19.7620 C   0  0  0  0  0  0  0  0  0  0  0  0
  -10.1080   13.9450   19.8100 C   0  0  0  0  0  0  0  0  0  0  0  0
  -11.0510   14.8840   20.2340 C   0  0  0  0  0  0  0  0  0  0  0  0
  -12.4130   14.5570   20.2880 C   0  0  0  0  0  0  0  0  0  0  0  0
  -13.3410   15.5790   20.7430 C   0  0  0  0  0  0  0  0  0  0  0  0
  -13.4570   16.1560   22.0240 C   0  0  0  0  0  0  0  0  0  0  0  0
  -14.4260   17.0750   22.0290 N   0  0  0  0  0  0  0  0  0  0  0  0
  -14.8700   17.0110   20.7600 N   0  0  0  0  0  0  0  0  0  0  0  0
  -15.9380   17.9110   20.2360 C   0  0  1  0  0  0  0  0  0  0  0  0
  -17.3250   17.3190   20.4890 C   0  0  0  0  0  0  0  0  0  0  0  0
  -17.8160   17.6180   21.8420 C   0  0  0  0  0  0  0  0  0  0  0  0
  -18.2060   17.8550   22.9080 N   0  0  0  0  0  0  0  0  0  0  0  0
  -15.7280   19.3670   20.7590 C   0  0  0  0  0  0  0  0  0  0  0  0
  -16.0850   19.8770   19.3400 C   0  0  1  0  0  0  0  0  0  0  0  0
  -15.3170   21.0060   18.8630 C   0  0  0  0  0  0  0  0  0  0  0  0
  -14.7080   21.9180   18.4850 N   0  0  0  0  0  0  0  0  0  0  0  0
  -15.6520   18.4860   18.8100 C   0  0  0  0  0  0  0  0  0  0  0  0
  -14.2660   16.1250   19.9400 N   0  0  0  0  0  0  0  0  0  0  0  0
  -12.8530   13.2610   19.9030 C   0  0  0  0  0  0  0  0  0  0  0  0
  -14.2020   12.8380   19.9010 C   0  0  0  0  0  0  0  0  0  0  0  0
  -14.5420   11.5530   19.5000 C   0  0  0  0  0  0  0  0  0  0  0  0
  -13.5240   10.7110   19.1090 C   0  0  0  0  0  0  0  0  0  0  0  0
  -12.2220   11.0700   19.0900 N   0  0  0  0  0  0  0  0  0  0  0  0
  -11.8960   12.3150   19.4760 C   0  0  0  0  0  0  0  0  0  0  0  0
  -10.5560   12.6720   19.4400 C   0  0  0  0  0  0  0  0  0  0  0  0
   -7.7090   13.4560   19.3540 N   0  0  0  0  0  0  0  0  0  0  0  0
   -6.5500   14.0960   19.4280 N   0  0  0  0  0  0  0  0  0  0  0  0
  1  2  1  0
  2  3  1  0
  3  4  2  0
  4  5  1  0
  5  6  2  0
  6  7  1  0
  7  8  1  0
  8  9  1  0
  9 10  2  0
 10 11  1  0
 11 12  1  0
 12 13  1  6
 13 14  1  0
 14 15  3  0
 12 16  1  0
 16 17  1  0
 17 18  1  6
 18 19  3  0
 17 20  1  0
 11 21  1  0
  7 22  2  0
 22 23  1  0
 23 24  2  0
 24 25  1  0
 25 26  2  0
 26 27  1  0
 27 28  2  0
  4 29  1  0
 29 30  2  0
 30  2  1  0
 28  5  1  0
 21  8  2  0
 27 22  1  0
 20 12  1  0
M  END
$$$$
