XIEDBRMNHVILCQ-UHFFFAOYSA-N
     RDKit          3D

 22 25  0  0  0  0  0  0  0  0999 V2000
   13.7870   33.3450   13.5550 C   0  0  0  0  0  0  0  0  0  0  0  0
   14.7920   34.0310   14.4430 C   0  0  0  0  0  0  0  0  0  0  0  0
   14.3220   34.6440   15.6210 C   0  0  0  0  0  0  0  0  0  0  0  0
   15.1950   35.2970   16.4890 C   0  0  0  0  0  0  0  0  0  0  0  0
   16.5510   35.3460   16.1970 C   0  0  0  0  0  0  0  0  0  0  0  0
   17.0330   34.7410   15.0340 C   0  0  0  0  0  0  0  0  0  0  0  0
   16.1740   34.0740   14.1370 C   0  0  0  0  0  0  0  0  0  0  0  0
   16.7290   33.4520   12.9320 C   0  0  0  0  0  0  0  0  0  0  0  0
   17.6020   32.4730   12.7850 N   0  0  0  0  0  0  0  0  0  0  0  0
   17.7710   32.2790   11.4300 N   0  0  0  0  0  0  0  0  0  0  0  0
   16.9900   33.1590   10.8370 C   0  0  0  0  0  0  0  0  0  0  0  0
   16.7930   33.4020    9.3870 C   0  0  0  0  0  0  0  0  0  0  0  0
   16.5770   32.1430    8.6090 C   0  0  0  0  0  0  0  0  0  0  0  0
   17.4990   31.4630    7.9550 N   0  0  0  0  0  0  0  0  0  0  0  0
   16.8430   30.4020    7.3800 C   0  0  0  0  0  0  0  0  0  0  0  0
   17.3400   29.3640    6.5800 C   0  0  0  0  0  0  0  0  0  0  0  0
   16.4500   28.3890    6.1130 C   0  0  0  0  0  0  0  0  0  0  0  0
   15.0910   28.4480    6.4360 C   0  0  0  0  0  0  0  0  0  0  0  0
   14.5760   29.4780    7.2310 C   0  0  0  0  0  0  0  0  0  0  0  0
   15.4860   30.4360    7.6820 C   0  0  0  0  0  0  0  0  0  0  0  0
   15.3410   31.5540    8.4600 N   0  0  0  0  0  0  0  0  0  0  0  0
   16.2930   33.9350   11.7200 O   0  0  0  0  0  0  0  0  0  0  0  0
  1  2  1  0
  2  3  2  0
  3  4  1  0
  4  5  2  0
  5  6  1  0
  6  7  2  0
  7  8  1  0
  8  9  2  0
  9 10  1  0
 10 11  2  0
 11 12  1  0
 12 13  1  0
 13 14  2  0
 14 15  1  0
 15 16  2  0
 16 17  1  0
 17 18  2  0
 18 19  1  0
 19 20  2  0
 20 21  1  0
 11 22  1  0
  7  2  1  0
 22  8  1  0
 21 13  1  0
 20 15  1  0
M  END
$$$$
