HKHOVJYOELRGMV-XYOKQWHBSA-N
     RDKit          3D

 21 22  0  0  0  0  0  0  0  0999 V2000
   14.4140   34.9590   15.5670 N   0  0  0  0  0  0  0  0  0  0  0  0
   15.3240   34.7440   14.8780 C   0  0  0  0  0  0  0  0  0  0  0  0
   16.3840   34.4320   13.9860 C   0  0  0  0  0  0  0  0  0  0  0  0
   17.6820   34.6150   14.3040 C   0  0  0  0  0  0  0  0  0  0  0  0
   18.1970   35.1530   15.5720 C   0  0  0  0  0  0  0  0  0  0  0  0
   18.9780   36.3200   15.5380 C   0  0  0  0  0  0  0  0  0  0  0  0
   19.5040   36.8570   16.7150 C   0  0  0  0  0  0  0  0  0  0  0  0
   19.2520   36.2180   17.9200 C   0  0  0  0  0  0  0  0  0  0  0  0
   19.7660   36.7430   19.0710 O   0  0  0  0  0  0  0  0  0  0  0  0
   18.4880   35.0560   17.9650 C   0  0  0  0  0  0  0  0  0  0  0  0
   18.2840   34.4800   19.1890 O   0  0  0  0  0  0  0  0  0  0  0  0
   17.9630   34.5110   16.7960 C   0  0  0  0  0  0  0  0  0  0  0  0
   16.0790   33.8790   12.6160 C   0  0  0  0  0  0  0  0  0  0  0  0
   15.0680   33.2020   12.4450 O   0  0  0  0  0  0  0  0  0  0  0  0
   17.0030   34.1980   11.6330 N   0  0  0  0  0  0  0  0  0  0  0  0
   16.9700   33.8260   10.2700 C   0  0  0  0  0  0  0  0  0  0  0  0
   17.8140   32.7780    9.8760 C   0  0  0  0  0  0  0  0  0  0  0  0
   17.8480   32.3440    8.5490 C   0  0  0  0  0  0  0  0  0  0  0  0
   17.0360   32.9550    7.5970 C   0  0  0  0  0  0  0  0  0  0  0  0
   16.1930   33.9970    7.9760 C   0  0  0  0  0  0  0  0  0  0  0  0
   16.1600   34.4310    9.3070 C   0  0  0  0  0  0  0  0  0  0  0  0
  1  2  3  0
  2  3  1  0
  3  4  2  0
  4  5  1  0
  5  6  2  0
  6  7  1  0
  7  8  2  0
  8  9  1  0
  8 10  1  0
 10 11  1  0
 10 12  2  0
  3 13  1  0
 13 14  2  0
 13 15  1  0
 15 16  1  0
 16 17  2  0
 17 18  1  0
 18 19  2  0
 19 20  1  0
 20 21  2  0
 12  5  1  0
 21 16  1  0
M  END
$$$$
