DEFMHIPKLZXSIY-UHFFFAOYSA-N
     RDKit          3D

 27 30  0  0  0  0  0  0  0  0999 V2000
  133.7120  119.3380   41.7610 F   0  0  0  0  0  0  0  0  0  0  0  0
  133.8060  118.5940   40.6530 C   0  0  0  0  0  0  0  0  0  0  0  0
  133.4200  117.2600   40.6880 C   0  0  0  0  0  0  0  0  0  0  0  0
  133.5270  116.4770   39.5360 C   0  0  0  0  0  0  0  0  0  0  0  0
  134.0170  117.0340   38.3420 C   0  0  0  0  0  0  0  0  0  0  0  0
  134.1190  116.2030   37.0880 C   0  0  0  0  0  0  0  0  0  0  0  0
  134.6090  114.8360   37.3810 N   0  0  0  0  0  0  0  0  0  0  0  0
  133.8990  113.7650   36.9580 C   0  0  0  0  0  0  0  0  0  0  0  0
  134.3240  112.4730   37.2420 C   0  0  0  0  0  0  0  0  0  0  0  0
  135.5040  112.2750   37.9570 C   0  0  0  0  0  0  0  0  0  0  0  0
  136.0330  110.8810   38.2130 C   0  0  0  0  0  0  0  0  0  0  0  0
  135.9430  110.4360   39.6810 C   0  0  0  0  0  0  0  0  0  0  0  0
  134.5970  110.5850   40.2030 N   0  0  0  0  0  0  0  0  0  0  0  0
  134.2620  111.6110   41.0150 C   0  0  0  0  0  0  0  0  0  0  0  0
  133.0450  112.0650   41.1990 N   0  0  0  0  0  0  0  0  0  0  0  0
  133.0620  113.1720   42.0290 C   0  0  0  0  0  0  0  0  0  0  0  0
  131.9450  113.9570   42.3830 C   0  0  0  0  0  0  0  0  0  0  0  0
  132.1120  115.0500   43.2400 C   0  0  0  0  0  0  0  0  0  0  0  0
  133.3700  115.3510   43.7430 C   0  0  0  0  0  0  0  0  0  0  0  0
  133.5080  116.3920   44.5740 F   0  0  0  0  0  0  0  0  0  0  0  0
  134.4940  114.5970   43.4130 C   0  0  0  0  0  0  0  0  0  0  0  0
  134.3160  113.5100   42.5440 C   0  0  0  0  0  0  0  0  0  0  0  0
  135.4820  112.4110   41.9240 S   0  0  0  0  0  0  0  0  0  0  0  0
  136.2210  113.3940   38.3830 C   0  0  0  0  0  0  0  0  0  0  0  0
  135.7520  114.6670   38.0830 C   0  0  0  0  0  0  0  0  0  0  0  0
  134.3960  118.3890   38.3280 C   0  0  0  0  0  0  0  0  0  0  0  0
  134.2920  119.1640   39.4840 C   0  0  0  0  0  0  0  0  0  0  0  0
  1  2  1  0
  2  3  2  0
  3  4  1  0
  4  5  2  0
  5  6  1  0
  6  7  1  0
  7  8  2  0
  8  9  1  0
  9 10  2  0
 10 11  1  0
 11 12  1  0
 12 13  1  0
 13 14  1  0
 14 15  2  0
 15 16  1  0
 16 17  2  0
 17 18  1  0
 18 19  2  0
 19 20  1  0
 19 21  1  0
 21 22  2  0
 22 23  1  0
 10 24  1  0
 24 25  2  0
  5 26  1  0
 26 27  2  0
 27  2  1  0
 25  7  1  0
 23 14  1  0
 22 16  1  0
M  CHG  1   7   1
M  END
$$$$
