FAQHMFAPRWBDDB-UHFFFAOYSA-N
     RDKit          3D

 32 34  0  0  0  0  0  0  0  0999 V2000
    9.7780    2.8580  -10.3020 C   0  0  0  0  0  0  0  0  0  0  0  0
    9.9460    4.2930  -10.7800 C   0  0  0  0  0  0  0  0  0  0  0  0
   10.8750    5.1280   -9.8930 C   0  0  0  0  0  0  0  0  0  0  0  0
   10.5490    6.6000   -9.8960 C   0  0  0  0  0  0  0  0  0  0  0  0
   10.0700    7.2810   -8.7530 C   0  0  0  0  0  0  0  0  0  0  0  0
    9.9260    6.5020   -7.6280 O   0  0  0  0  0  0  0  0  0  0  0  0
    8.6270    5.9580   -7.3780 C   0  0  0  0  0  0  0  0  0  0  0  0
    7.7180    7.0780   -6.8810 C   0  0  0  0  0  0  0  0  0  0  0  0
    6.3740    6.5760   -6.3520 C   0  0  0  0  0  0  0  0  0  0  0  0
    5.7380    7.5260   -5.4280 N   0  0  0  0  0  0  0  0  0  0  0  0
    5.8630    8.9440   -5.7530 C   0  0  0  0  0  0  0  0  0  0  0  0
    4.7780    7.1020   -4.5140 C   0  0  0  0  0  0  0  0  0  0  0  0
    4.2860    5.7860   -4.5070 C   0  0  0  0  0  0  0  0  0  0  0  0
    3.3840    5.3340   -3.5350 C   0  0  0  0  0  0  0  0  0  0  0  0
    2.9190    6.1980   -2.5420 C   0  0  0  0  0  0  0  0  0  0  0  0
    1.9820    5.7060   -1.4670 C   0  0  0  0  0  0  0  0  0  0  0  0
    2.4520    6.0130   -0.0630 C   0  0  0  0  0  0  0  0  0  0  0  0
    1.9460    6.7520    0.7640 O   0  0  0  0  0  0  0  0  0  0  0  0
    3.5820    5.3350    0.2400 O   0  0  0  0  0  0  0  0  0  0  0  0
    3.3630    7.5200   -2.5510 C   0  0  0  0  0  0  0  0  0  0  0  0
    4.2680    7.9600   -3.5260 C   0  0  0  0  0  0  0  0  0  0  0  0
    9.7760    8.6530   -8.8010 C   0  0  0  0  0  0  0  0  0  0  0  0
    9.9360    9.3990   -9.9780 C   0  0  0  0  0  0  0  0  0  0  0  0
   10.4010    8.7410  -11.1240 C   0  0  0  0  0  0  0  0  0  0  0  0
   10.6960    9.0850  -12.4720 C   0  0  0  0  0  0  0  0  0  0  0  0
   10.5760   10.4280  -13.0960 C   0  0  0  0  0  0  0  0  0  0  0  0
   11.1200   10.4590  -14.3460 F   0  0  0  0  0  0  0  0  0  0  0  0
    9.2750   10.8040  -13.2440 F   0  0  0  0  0  0  0  0  0  0  0  0
   11.1870   11.4160  -12.3910 F   0  0  0  0  0  0  0  0  0  0  0  0
   11.1310    8.0140  -13.1580 N   0  0  0  0  0  0  0  0  0  0  0  0
   11.1200    6.9600  -12.2620 O   0  0  0  0  0  0  0  0  0  0  0  0
   10.6860    7.3910  -11.0450 C   0  0  0  0  0  0  0  0  0  0  0  0
  1  2  1  0
  2  3  1  0
  3  4  1  0
  4  5  2  0
  5  6  1  0
  6  7  1  0
  7  8  1  0
  8  9  1  0
  9 10  1  0
 10 11  1  0
 10 12  1  0
 12 13  2  0
 13 14  1  0
 14 15  2  0
 15 16  1  0
 16 17  1  0
 17 18  2  0
 17 19  1  0
 15 20  1  0
 20 21  2  0
  5 22  1  0
 22 23  2  0
 23 24  1  0
 24 25  1  0
 25 26  1  0
 26 27  1  0
 26 28  1  0
 26 29  1  0
 25 30  2  0
 30 31  1  0
 31 32  1  0
 32  4  1  0
 21 12  1  0
 32 24  2  0
M  END
$$$$
