CZGNRKPPNUUZNJ-UHFFFAOYSA-N
     RDKit          3D

 15 16  0  0  0  0  0  0  0  0999 V2000
   25.3100   31.3640   12.0570 O   0  0  0  0  0  0  0  0  0  0  0  0
   24.6140   32.2070   12.6150 C   0  0  0  0  0  0  0  0  0  0  0  0
   25.1020   32.9460   13.8390 C   0  0  0  0  0  0  0  0  0  0  0  0
   23.7520   34.0580   14.2820 S   0  0  0  0  0  0  0  0  0  0  0  0
   22.8080   33.4640   12.9310 C   0  0  0  0  0  0  0  0  0  0  0  0
   21.5720   34.0420   12.8070 N   0  0  0  0  0  0  0  0  0  0  0  0
   20.6720   33.7260   11.8380 N   0  0  0  0  0  0  0  0  0  0  0  0
   19.4020   33.7210   12.1230 C   0  0  0  0  0  0  0  0  0  0  0  0
   18.4580   33.3500   10.9980 C   0  0  0  0  0  0  0  0  0  0  0  0
   17.2500   34.2760   10.9660 C   0  0  0  0  0  0  0  0  0  0  0  0
   16.0940   33.7920   11.8350 C   0  0  0  0  0  0  0  0  0  0  0  0
   16.2910   34.0190   13.3320 C   0  0  0  0  0  0  0  0  0  0  0  0
   17.5490   33.3610   13.8960 C   0  0  0  0  0  0  0  0  0  0  0  0
   18.8380   34.0640   13.4920 C   0  0  0  0  0  0  0  0  0  0  0  0
   23.3540   32.5560   12.1960 N   0  0  0  0  0  0  0  0  0  0  0  0
  1  2  2  0
  2  3  1  0
  3  4  1  0
  4  5  1  0
  5  6  1  0
  6  7  1  0
  7  8  2  0
  8  9  1  0
  9 10  1  0
 10 11  1  0
 11 12  1  0
 12 13  1  0
 13 14  1  0
  5 15  2  0
 15  2  1  0
 14  8  1  0
M  END
$$$$
