CZGNRKPPNUUZNJ-UHFFFAOYSA-N
     RDKit          3D

 15 16  0  0  0  0  0  0  0  0999 V2000
   13.8670   30.2890    7.2970 O   0  0  0  0  0  0  0  0  0  0  0  0
   15.0170   30.6230    7.5640 C   0  0  0  0  0  0  0  0  0  0  0  0
   16.1350   30.4670    6.5600 C   0  0  0  0  0  0  0  0  0  0  0  0
   17.6070   31.0870    7.4010 S   0  0  0  0  0  0  0  0  0  0  0  0
   16.6540   31.4360    8.8290 C   0  0  0  0  0  0  0  0  0  0  0  0
   17.3680   31.9750    9.8670 N   0  0  0  0  0  0  0  0  0  0  0  0
   16.8340   32.3140   11.0700 N   0  0  0  0  0  0  0  0  0  0  0  0
   17.4420   33.1890   11.8150 C   0  0  0  0  0  0  0  0  0  0  0  0
   16.7950   33.5090   13.1480 C   0  0  0  0  0  0  0  0  0  0  0  0
   17.8440   33.8250   14.2060 C   0  0  0  0  0  0  0  0  0  0  0  0
   18.8470   32.6960   14.4190 C   0  0  0  0  0  0  0  0  0  0  0  0
   19.7700   32.4110   13.2270 C   0  0  0  0  0  0  0  0  0  0  0  0
   19.9600   33.5900   12.2740 C   0  0  0  0  0  0  0  0  0  0  0  0
   18.7330   33.8890   11.4220 C   0  0  0  0  0  0  0  0  0  0  0  0
   15.3960   31.1580    8.7700 N   0  0  0  0  0  0  0  0  0  0  0  0
  1  2  2  0
  2  3  1  0
  3  4  1  0
  4  5  1  0
  5  6  1  0
  6  7  1  0
  7  8  2  0
  8  9  1  0
  9 10  1  0
 10 11  1  0
 11 12  1  0
 12 13  1  0
 13 14  1  0
  5 15  2  0
 15  2  1  0
 14  8  1  0
M  END
$$$$
