JHULSUDSBNZWAW-AERCQKQUSA-N
     RDKit          3D

 40 46  0  0  0  0  0  0  0  0999 V2000
   16.2100   30.8900    6.9290 C   0  0  0  0  0  0  0  0  0  0  0  0
   15.5650   31.4880    7.9410 C   0  0  0  0  0  0  0  0  0  0  0  0
   15.8980   32.8890    8.3180 C   0  0  0  0  0  0  0  0  0  0  0  0
   15.4290   33.8350    7.6890 O   0  0  0  0  0  0  0  0  0  0  0  0
   16.7540   33.0640    9.3770 N   0  0  0  0  0  0  0  0  0  0  0  0
   17.4160   34.2540    9.8840 C   0  0  2  0  0  0  0  0  0  0  0  0
   18.7070   33.6990   10.4960 C   0  0  0  0  0  0  0  0  0  0  0  0
   18.4100   32.2180   10.7650 C   0  0  0  0  0  0  0  0  0  0  0  0
   16.9410   32.0410   10.3870 C   0  0  1  0  0  0  0  0  0  0  0  0
   15.9710   32.3520   11.5390 C   0  0  0  0  0  0  0  0  0  0  0  0
   15.9500   33.8430   11.9780 C   0  0  1  0  0  0  0  0  0  0  0  0
   16.5500   34.0650   13.2950 N   0  0  0  0  0  0  0  0  0  0  0  0
   17.8880   34.1120   13.4450 N   0  0  0  0  0  0  0  0  0  0  0  0
   18.0730   34.2810   14.7650 C   0  0  0  0  0  0  0  0  0  0  0  0
   19.4250   34.3170   15.3040 C   0  0  0  0  0  0  0  0  0  0  0  0
   19.8840   33.2900   16.1370 C   0  0  0  0  0  0  0  0  0  0  0  0
   21.1850   33.3240   16.6450 C   0  0  0  0  0  0  0  0  0  0  0  0
   22.0340   34.3920   16.3280 C   0  0  0  0  0  0  0  0  0  0  0  0
   23.3360   34.4320   16.7820 O   0  0  0  0  0  0  0  0  0  0  0  0
   24.3170   34.0400   15.8960 C   0  0  0  0  0  0  0  0  0  0  0  0
   25.5630   34.6760   15.8530 C   0  0  0  0  0  0  0  0  0  0  0  0
   26.5390   34.2860   14.9270 C   0  0  0  0  0  0  0  0  0  0  0  0
   26.2020   33.2470   14.0510 C   0  0  0  0  0  0  0  0  0  0  0  0
   24.9570   32.6170   14.0670 C   0  0  0  0  0  0  0  0  0  0  0  0
   23.9880   33.0220   14.9950 C   0  0  0  0  0  0  0  0  0  0  0  0
   24.8870   31.6410   13.1030 N   0  0  0  0  0  0  0  0  0  0  0  0
   26.0540   31.6670   12.5010 C   0  0  0  0  0  0  0  0  0  0  0  0
   26.8750   32.6170   13.0340 N   0  0  0  0  0  0  0  0  0  0  0  0
   28.2190   32.9060   12.5980 C   0  0  0  0  0  0  0  0  0  0  0  0
   21.5870   35.4010   15.4680 C   0  0  0  0  0  0  0  0  0  0  0  0
   22.6100   36.7190   15.0230 Cl  0  0  0  0  0  0  0  0  0  0  0  0
   20.2870   35.3660   14.9600 C   0  0  0  0  0  0  0  0  0  0  0  0
   16.8320   34.4110   15.4540 C   0  0  0  0  0  0  0  0  0  0  0  0
   16.3700   34.6500   16.7580 C   0  0  0  0  0  0  0  0  0  0  0  0
   17.2360   34.8690   17.9590 C   0  0  0  0  0  0  0  0  0  0  0  0
   15.0220   34.6800   16.9620 N   0  0  0  0  0  0  0  0  0  0  0  0
   14.1990   34.5050   15.9110 C   0  0  0  0  0  0  0  0  0  0  0  0
   14.5350   34.2980   14.6290 N   0  0  0  0  0  0  0  0  0  0  0  0
   15.8690   34.2590   14.4690 C   0  0  0  0  0  0  0  0  0  0  0  0
   16.4830   34.8660   10.9370 C   0  0  0  0  0  0  0  0  0  0  0  0
  1  2  2  0
  2  3  1  0
  3  4  2  0
  3  5  1  0
  5  6  1  0
  6  7  1  1
  7  8  1  0
  9  8  1  1
  9 10  1  0
 10 11  1  0
 11 12  1  1
 12 13  1  0
 13 14  2  0
 14 15  1  0
 15 16  2  0
 16 17  1  0
 17 18  2  0
 18 19  1  0
 19 20  1  0
 20 21  2  0
 21 22  1  0
 22 23  2  0
 23 24  1  0
 24 25  2  0
 24 26  1  0
 26 27  2  0
 27 28  1  0
 28 29  1  0
 18 30  1  0
 30 31  1  0
 30 32  2  0
 14 33  1  0
 33 34  2  0
 34 35  1  0
 34 36  1  0
 36 37  2  0
 37 38  1  0
 38 39  2  0
 11 40  1  0
  9  5  1  0
 39 12  1  0
 40  6  1  0
 32 15  1  0
 39 33  1  0
 25 20  1  0
 28 23  1  0
M  END
$$$$
