PUMVGUHHVKZTOZ-HJGJAMNPSA-N
     RDKit          3D

 29 33  0  0  0  0  0  0  0  0999 V2000
    2.3050  -26.9930   21.2380 C   0  0  0  0  0  0  0  0  0  0  0  0
    3.4800  -26.2080   21.5010 N   0  0  0  0  0  0  0  0  0  0  0  0
    3.8040  -24.9850   21.0010 C   0  0  0  0  0  0  0  0  0  0  0  0
    5.0220  -24.7110   21.5800 C   0  0  0  0  0  0  0  0  0  0  0  0
    5.8440  -23.5500   21.4150 C   0  0  0  0  0  0  0  0  0  0  0  0
    7.1860  -23.6160   21.3580 C   0  0  0  0  0  0  0  0  0  0  0  0
    7.9200  -22.4600   21.1870 N   0  0  0  0  0  0  0  0  0  0  0  0
    9.2640  -22.3240   21.0880 N   0  0  0  0  0  0  0  0  0  0  0  0
    9.4530  -21.0250   20.8510 C   0  0  0  0  0  0  0  0  0  0  0  0
    8.2510  -20.3020   20.8230 C   0  0  0  0  0  0  0  0  0  0  0  0
    7.2760  -21.2430   21.0780 C   0  0  0  0  0  0  0  0  0  0  0  0
    5.8430  -21.2490   21.1900 C   0  0  0  0  0  0  0  0  0  0  0  0
    5.0980  -20.0090   21.1450 C   0  0  0  0  0  0  0  0  0  0  0  0
    4.7970  -19.1490   22.2290 C   0  0  0  0  0  0  0  0  0  0  0  0
    4.0750  -18.0850   21.8680 N   0  0  0  0  0  0  0  0  0  0  0  0
    3.9600  -18.2200   20.5380 N   0  0  0  0  0  0  0  0  0  0  0  0
    3.1490  -17.2670   19.7240 C   0  0  1  0  0  0  0  0  0  0  0  0
    3.6710  -15.8360   19.9010 C   0  0  0  0  0  0  0  0  0  0  0  0
    2.6770  -14.9750   20.5600 C   0  0  0  0  0  0  0  0  0  0  0  0
    1.8550  -14.3460   21.0830 N   0  0  0  0  0  0  0  0  0  0  0  0
    3.0380  -17.7440   18.2400 C   0  0  0  0  0  0  0  0  0  0  0  0
    1.5100  -17.5130   18.2890 C   0  0  2  0  0  0  0  0  0  0  0  0
    1.0440  -16.2730   17.7040 C   0  0  0  0  0  0  0  0  0  0  0  0
    0.6960  -15.2620   17.2560 N   0  0  0  0  0  0  0  0  0  0  0  0
    1.6130  -17.5260   19.8340 C   0  0  0  0  0  0  0  0  0  0  0  0
    4.5540  -19.3540   20.0560 C   0  0  0  0  0  0  0  0  0  0  0  0
    5.1560  -22.3460   21.3290 N   0  0  0  0  0  0  0  0  0  0  0  0
    5.3850  -25.7540   22.3930 N   0  0  0  0  0  0  0  0  0  0  0  0
    4.4260  -26.6700   22.3360 N   0  0  0  0  0  0  0  0  0  0  0  0
  1  2  1  0
  2  3  1  0
  3  4  2  0
  4  5  1  0
  5  6  2  0
  6  7  1  0
  7  8  1  0
  8  9  2  0
  9 10  1  0
 10 11  2  0
 11 12  1  0
 12 13  1  0
 13 14  1  0
 14 15  2  0
 15 16  1  0
 16 17  1  0
 17 18  1  1
 18 19  1  0
 19 20  3  0
 17 21  1  0
 21 22  1  0
 22 23  1  1
 23 24  3  0
 22 25  1  0
 16 26  1  0
 12 27  2  0
  4 28  1  0
 28 29  2  0
 29  2  1  0
 27  5  1  0
 11  7  1  0
 26 13  2  0
 25 17  1  0
M  END
$$$$
