WQCJKMGDGUHOFD-QGZVFWFLSA-N
     RDKit          3D

 37 40  0  0  0  0  0  0  0  0999 V2000
   -6.3230   -5.8760  -20.5070 C   0  0  0  0  0  0  0  0  0  0  0  0
   -7.8100   -5.9940  -20.2040 C   0  0  0  0  0  0  0  0  0  0  0  0
   -8.4170   -7.2310  -20.8260 C   0  0  0  0  0  0  0  0  0  0  0  0
   -7.7650   -7.7970  -21.9380 C   0  0  0  0  0  0  0  0  0  0  0  0
   -8.2730   -8.9370  -22.5650 C   0  0  0  0  0  0  0  0  0  0  0  0
   -7.6880   -9.5070  -23.6730 O   0  0  0  0  0  0  0  0  0  0  0  0
   -8.1730   -9.1400  -24.9090 C   0  0  0  0  0  0  0  0  0  0  0  0
   -7.2910   -9.2240  -25.9810 C   0  0  0  0  0  0  0  0  0  0  0  0
   -7.7200   -8.8270  -27.2380 C   0  0  0  0  0  0  0  0  0  0  0  0
   -6.8780   -8.9060  -28.2770 F   0  0  0  0  0  0  0  0  0  0  0  0
   -9.0090   -8.3410  -27.4390 C   0  0  0  0  0  0  0  0  0  0  0  0
   -9.9090   -8.2400  -26.3650 C   0  0  0  0  0  0  0  0  0  0  0  0
  -11.2900   -7.6620  -26.6160 C   0  0  1  0  0  0  0  0  0  0  0  0
  -12.0630   -7.2880  -25.3490 C   0  0  0  0  0  0  0  0  0  0  0  0
  -11.1680   -6.5070  -27.4820 N   0  0  0  0  0  0  0  0  0  0  0  0
  -11.8800   -6.3670  -28.6560 C   0  0  0  0  0  0  0  0  0  0  0  0
  -12.7140   -7.2050  -28.9930 O   0  0  0  0  0  0  0  0  0  0  0  0
  -11.5720   -5.1760  -29.4510 C   0  0  0  0  0  0  0  0  0  0  0  0
  -12.4140   -3.7090  -29.2010 S   0  0  0  0  0  0  0  0  0  0  0  0
  -11.5440   -2.8830  -30.4240 C   0  0  0  0  0  0  0  0  0  0  0  0
  -11.7150   -1.5390  -30.8110 C   0  0  0  0  0  0  0  0  0  0  0  0
  -10.9180   -1.0220  -31.8350 C   0  0  0  0  0  0  0  0  0  0  0  0
   -9.9760   -1.8250  -32.4540 C   0  0  0  0  0  0  0  0  0  0  0  0
   -9.0000   -1.1780  -33.7160 Cl  0  0  0  0  0  0  0  0  0  0  0  0
   -9.8060   -3.1560  -32.0650 C   0  0  0  0  0  0  0  0  0  0  0  0
  -10.6020   -3.7150  -31.0300 C   0  0  0  0  0  0  0  0  0  0  0  0
  -10.6190   -5.0500  -30.4590 C   0  0  0  0  0  0  0  0  0  0  0  0
   -9.7170   -6.1680  -30.8980 C   0  0  0  0  0  0  0  0  0  0  0  0
   -9.4650   -8.6260  -25.0880 C   0  0  0  0  0  0  0  0  0  0  0  0
   -9.4610   -9.5020  -22.1200 C   0  0  0  0  0  0  0  0  0  0  0  0
  -10.1250   -8.9500  -21.0240 C   0  0  0  0  0  0  0  0  0  0  0  0
   -9.6190   -7.8130  -20.3680 C   0  0  0  0  0  0  0  0  0  0  0  0
  -10.3900   -7.2770  -19.1790 C   0  0  0  0  0  0  0  0  0  0  0  0
  -11.4380   -8.2760  -18.6910 C   0  0  0  0  0  0  0  0  0  0  0  0
  -11.6660   -8.1360  -17.2140 C   0  0  0  0  0  0  0  0  0  0  0  0
  -11.2150   -7.2830  -16.4700 O   0  0  0  0  0  0  0  0  0  0  0  0
  -12.4700   -9.1070  -16.7350 O   0  0  0  0  0  0  0  0  0  0  0  0
  1  2  1  0
  2  3  1  0
  3  4  2  0
  4  5  1  0
  5  6  1  0
  6  7  1  0
  7  8  2  0
  8  9  1  0
  9 10  1  0
  9 11  2  0
 11 12  1  0
 12 13  1  0
 13 14  1  1
 13 15  1  0
 15 16  1  0
 16 17  2  0
 16 18  1  0
 18 19  1  0
 19 20  1  0
 20 21  2  0
 21 22  1  0
 22 23  2  0
 23 24  1  0
 23 25  1  0
 25 26  2  0
 26 27  1  0
 27 28  1  0
 12 29  2  0
  5 30  2  0
 30 31  1  0
 31 32  2  0
 32 33  1  0
 33 34  1  0
 34 35  1  0
 35 36  2  0
 35 37  1  0
 32  3  1  0
 29  7  1  0
 27 18  2  0
 26 20  1  0
M  END
$$$$
