YKBLMPDUTCAIQD-XYPYZODXSA-N
     RDKit          3D

 25 27  0  0  0  0  0  0  0  0999 V2000
  -13.5590   22.0290   21.3340 C   0  0  0  0  0  0  0  0  0  0  0  0
  -14.8780   21.5410   20.9520 N   0  0  0  0  0  0  0  0  0  0  0  0
  -15.2160   21.2340   19.3410 S   0  0  0  0  0  0  0  0  0  0  0  0
  -16.4990   20.5650   19.3340 O   0  0  0  0  0  0  0  0  0  0  0  0
  -14.9830   22.4530   18.6010 O   0  0  0  0  0  0  0  0  0  0  0  0
  -13.9500   20.0360   18.9170 C   0  0  0  0  0  0  0  0  0  0  0  0
  -14.2020   18.6430   19.5170 C   0  0  2  0  0  0  0  0  0  0  0  0
  -13.2130   18.4000   20.6690 C   0  0  0  0  0  0  0  0  0  0  0  0
  -13.3790   17.0140   21.2790 C   0  0  0  0  0  0  0  0  0  0  0  0
  -13.2310   15.9070   20.2310 C   0  0  1  0  0  0  0  0  0  0  0  0
  -13.5070   14.6580   20.8920 O   0  0  0  0  0  0  0  0  0  0  0  0
  -12.9090   13.5900   20.2730 C   0  0  0  0  0  0  0  0  0  0  0  0
  -13.6200   12.4830   19.8110 C   0  0  0  0  0  0  0  0  0  0  0  0
  -15.0340   12.3740   20.0070 N   0  0  0  0  0  0  0  0  0  0  0  0
  -15.7630   12.9340   19.1760 O   0  0  0  0  0  0  0  0  0  0  0  0
  -15.4190   11.6810   20.9590 O   0  0  0  0  0  0  0  0  0  0  0  0
  -12.9860   11.4540   19.1320 C   0  0  0  0  0  0  0  0  0  0  0  0
  -11.6630   11.4210   18.8510 N   0  0  0  0  0  0  0  0  0  0  0  0
  -11.0110   12.5240   19.2670 C   0  0  0  0  0  0  0  0  0  0  0  0
   -9.6770   12.7490   19.0680 N   0  0  0  0  0  0  0  0  0  0  0  0
   -9.3320   13.9740   19.5770 C   0  0  0  0  0  0  0  0  0  0  0  0
  -10.4660   14.5410   20.1200 C   0  0  0  0  0  0  0  0  0  0  0  0
  -11.5380   13.6210   19.9470 C   0  0  0  0  0  0  0  0  0  0  0  0
  -14.2280   16.1350   19.0920 C   0  0  0  0  0  0  0  0  0  0  0  0
  -14.0840   17.5230   18.4710 C   0  0  0  0  0  0  0  0  0  0  0  0
  1  2  1  0
  2  3  1  0
  3  4  2  0
  3  5  2  0
  3  6  1  0
  7  6  1  1
  7  8  1  0
  8  9  1  0
  9 10  1  0
 10 11  1  6
 11 12  1  0
 12 13  2  0
 13 14  1  0
 14 15  2  0
 14 16  1  0
 13 17  1  0
 17 18  2  0
 18 19  1  0
 19 20  1  0
 20 21  1  0
 21 22  2  0
 22 23  1  0
 10 24  1  0
 24 25  1  0
 25  7  1  0
 23 12  1  0
 23 19  2  0
M  CHG  2  14   1  16  -1
M  END
$$$$
