JIHVXAPKKMMRTK-UHFFFAOYSA-N
     RDKit          3D

 32 35  0  0  0  0  0  0  0  0999 V2000
  134.7730  112.4980   43.9950 C   0  0  0  0  0  0  0  0  0  0  0  0
  134.7940  113.6450   43.6390 C   0  0  0  0  0  0  0  0  0  0  0  0
  134.8160  115.0540   43.2090 C   0  0  0  0  0  0  0  0  0  0  0  0
  134.9110  115.1670   41.7490 N   0  0  0  0  0  0  0  0  0  0  0  0
  135.2710  116.5170   41.3240 C   0  0  0  0  0  0  0  0  0  0  0  0
  133.7200  114.6480   41.0680 C   0  0  0  0  0  0  0  0  0  0  0  0
  133.9940  113.7550   39.9020 C   0  0  0  0  0  0  0  0  0  0  0  0
  134.7550  112.6070   39.7970 C   0  0  0  0  0  0  0  0  0  0  0  0
  134.6980  112.1590   38.4490 C   0  0  0  0  0  0  0  0  0  0  0  0
  135.2530  111.0690   37.7530 C   0  0  0  0  0  0  0  0  0  0  0  0
  135.0010  110.9100   36.3820 C   0  0  0  0  0  0  0  0  0  0  0  0
  135.6040  109.8110   35.8340 O   0  0  0  0  0  0  0  0  0  0  0  0
  136.5980  109.1140   36.5810 C   0  0  0  0  0  0  0  0  0  0  0  0
  137.9950  109.2890   35.9830 C   0  0  0  0  0  0  0  0  0  0  0  0
  139.0120  109.9670   36.9100 C   0  0  0  0  0  0  0  0  0  0  0  0
  138.4340  110.9990   37.8960 C   0  0  0  0  0  0  0  0  0  0  0  0
  138.7240  112.4220   37.3970 C   0  0  0  0  0  0  0  0  0  0  0  0
  138.2320  113.4770   38.3880 C   0  0  0  0  0  0  0  0  0  0  0  0
  138.8310  113.2820   39.7170 N   0  0  0  0  0  0  0  0  0  0  0  0
  138.3860  114.3510   40.6300 C   0  0  0  0  0  0  0  0  0  0  0  0
  139.5240  115.0450   41.3520 C   0  0  0  0  0  0  0  0  0  0  0  0
  140.7750  114.4230   41.4790 C   0  0  0  0  0  0  0  0  0  0  0  0
  141.8290  115.0690   42.1250 C   0  0  0  0  0  0  0  0  0  0  0  0
  141.6470  116.3500   42.6450 C   0  0  0  0  0  0  0  0  0  0  0  0
  140.4110  116.9820   42.5200 C   0  0  0  0  0  0  0  0  0  0  0  0
  139.3550  116.3360   41.8750 C   0  0  0  0  0  0  0  0  0  0  0  0
  138.4920  111.9510   40.2450 C   0  0  0  0  0  0  0  0  0  0  0  0
  138.9890  110.8400   39.3160 C   0  0  0  0  0  0  0  0  0  0  0  0
  134.2020  111.8350   35.7130 C   0  0  0  0  0  0  0  0  0  0  0  0
  133.6380  112.9300   36.3840 C   0  0  0  0  0  0  0  0  0  0  0  0
  133.9040  113.0640   37.7500 C   0  0  0  0  0  0  0  0  0  0  0  0
  133.4980  114.0240   38.6480 N   0  0  0  0  0  0  0  0  0  0  0  0
  1  2  3  0
  2  3  1  0
  3  4  1  0
  4  5  1  0
  4  6  1  0
  6  7  1  0
  7  8  2  0
  8  9  1  0
  9 10  2  0
 10 11  1  0
 11 12  1  0
 12 13  1  0
 13 14  1  0
 14 15  1  0
 15 16  1  0
 16 17  1  0
 17 18  1  0
 18 19  1  0
 19 20  1  0
 20 21  1  0
 21 22  2  0
 22 23  1  0
 23 24  2  0
 24 25  1  0
 25 26  2  0
 19 27  1  0
 27 28  1  0
 11 29  2  0
 29 30  1  0
 30 31  2  0
 31 32  1  0
 32  7  1  0
 31  9  1  0
 28 16  1  0
 26 21  1  0
M  END
$$$$
