KORIKKLQSZIORK-UHFFFAOYSA-N
     RDKit          3D

 34 37  0  0  0  0  0  0  0  0999 V2000
   -9.1120   -6.6760  -31.0440 C   0  0  0  0  0  0  0  0  0  0  0  0
   -9.9820   -7.3110  -30.1060 O   0  0  0  0  0  0  0  0  0  0  0  0
   -9.7820   -8.6530  -29.9810 C   0  0  0  0  0  0  0  0  0  0  0  0
   -9.8970   -9.4660  -30.8890 O   0  0  0  0  0  0  0  0  0  0  0  0
   -9.3760   -8.9930  -28.5730 C   0  0  2  0  0  0  0  0  0  0  0  0
  -10.0040   -7.9970  -27.6070 C   0  0  0  0  0  0  0  0  0  0  0  0
   -9.5730   -8.3340  -26.2140 C   0  0  0  0  0  0  0  0  0  0  0  0
  -10.3810   -8.0930  -25.1030 C   0  0  0  0  0  0  0  0  0  0  0  0
   -9.9220   -8.4070  -23.8180 C   0  0  0  0  0  0  0  0  0  0  0  0
   -8.6490   -8.9520  -23.6330 C   0  0  0  0  0  0  0  0  0  0  0  0
   -8.0870   -9.2960  -22.4350 O   0  0  0  0  0  0  0  0  0  0  0  0
   -6.8920   -8.6090  -22.0510 C   0  0  0  0  0  0  0  0  0  0  0  0
   -7.2370   -7.1490  -21.7600 C   0  0  0  0  0  0  0  0  0  0  0  0
   -7.9230   -6.9840  -20.4500 C   0  0  0  0  0  0  0  0  0  0  0  0
   -9.2180   -7.4190  -20.2730 N   0  0  0  0  0  0  0  0  0  0  0  0
   -9.4920   -7.1280  -19.0140 C   0  0  0  0  0  0  0  0  0  0  0  0
  -10.7170   -7.3660  -18.2570 C   0  0  0  0  0  0  0  0  0  0  0  0
  -11.6040   -8.3670  -18.6680 C   0  0  0  0  0  0  0  0  0  0  0  0
  -12.7810   -8.6220  -17.9550 C   0  0  0  0  0  0  0  0  0  0  0  0
  -13.1190   -7.8850  -16.8040 C   0  0  0  0  0  0  0  0  0  0  0  0
  -14.4190   -8.1960  -16.0410 C   0  0  0  0  0  0  0  0  0  0  0  0
  -15.4980   -8.6860  -17.0310 C   0  0  0  0  0  0  0  0  0  0  0  0
  -14.9220   -6.9210  -15.3320 C   0  0  0  0  0  0  0  0  0  0  0  0
  -14.2620   -9.2890  -14.9600 C   0  0  0  0  0  0  0  0  0  0  0  0
  -12.2250   -6.8810  -16.4030 C   0  0  0  0  0  0  0  0  0  0  0  0
  -11.0450   -6.6260  -17.1170 C   0  0  0  0  0  0  0  0  0  0  0  0
   -8.4560   -6.5280  -18.3450 O   0  0  0  0  0  0  0  0  0  0  0  0
   -7.4570   -6.4390  -19.2730 C   0  0  0  0  0  0  0  0  0  0  0  0
   -6.1850   -5.8420  -18.8310 C   0  0  0  0  0  0  0  0  0  0  0  0
   -7.8330   -9.1760  -24.7430 C   0  0  0  0  0  0  0  0  0  0  0  0
   -8.3030   -8.8670  -26.0160 C   0  0  0  0  0  0  0  0  0  0  0  0
   -7.4300   -9.0780  -27.1000 O   0  0  0  0  0  0  0  0  0  0  0  0
   -7.8820   -9.0020  -28.4170 C   0  0  0  0  0  0  0  0  0  0  0  0
   -7.0910   -9.0310  -29.3540 O   0  0  0  0  0  0  0  0  0  0  0  0
  1  2  1  0
  2  3  1  0
  3  4  2  0
  5  3  1  6
  5  6  1  0
  6  7  1  0
  7  8  2  0
  8  9  1  0
  9 10  2  0
 10 11  1  0
 11 12  1  0
 12 13  1  0
 13 14  1  0
 14 15  1  0
 15 16  2  0
 16 17  1  0
 17 18  2  0
 18 19  1  0
 19 20  2  0
 20 21  1  0
 21 22  1  0
 21 23  1  0
 21 24  1  0
 20 25  1  0
 25 26  2  0
 16 27  1  0
 27 28  1  0
 28 29  1  0
 10 30  1  0
 30 31  2  0
 31 32  1  0
 32 33  1  0
 33 34  2  0
 33  5  1  0
 31  7  1  0
 28 14  2  0
 26 17  1  0
M  END
$$$$
