KORIKKLQSZIORK-UHFFFAOYSA-N
     RDKit          3D

 34 37  0  0  0  0  0  0  0  0999 V2000
   -3.3650   -1.0940  -21.7640 C   0  0  0  0  0  0  0  0  0  0  0  0
   -2.9650   -2.3080  -21.1270 O   0  0  0  0  0  0  0  0  0  0  0  0
   -3.8640   -2.7840  -20.2200 C   0  0  0  0  0  0  0  0  0  0  0  0
   -4.2130   -2.1940  -19.2050 O   0  0  0  0  0  0  0  0  0  0  0  0
   -4.3850   -4.1260  -20.6540 C   0  0  2  0  0  0  0  0  0  0  0  0
   -5.8260   -4.2890  -20.1870 C   0  0  0  0  0  0  0  0  0  0  0  0
   -6.3220   -5.6370  -20.6060 C   0  0  0  0  0  0  0  0  0  0  0  0
   -7.6610   -5.8750  -20.9180 C   0  0  0  0  0  0  0  0  0  0  0  0
   -8.0800   -7.1600  -21.2840 C   0  0  0  0  0  0  0  0  0  0  0  0
   -7.1660   -8.2170  -21.3320 C   0  0  0  0  0  0  0  0  0  0  0  0
   -7.4510   -9.5110  -21.6690 O   0  0  0  0  0  0  0  0  0  0  0  0
   -8.3120   -9.7220  -22.7920 C   0  0  0  0  0  0  0  0  0  0  0  0
   -7.4650   -9.7300  -24.0650 C   0  0  0  0  0  0  0  0  0  0  0  0
   -8.1480   -9.0500  -25.1980 C   0  0  0  0  0  0  0  0  0  0  0  0
   -9.3510   -8.4050  -25.0110 N   0  0  0  0  0  0  0  0  0  0  0  0
   -9.6490   -7.9170  -26.2020 C   0  0  0  0  0  0  0  0  0  0  0  0
  -10.8060   -7.1270  -26.6120 C   0  0  0  0  0  0  0  0  0  0  0  0
  -11.7830   -6.7850  -25.6710 C   0  0  0  0  0  0  0  0  0  0  0  0
  -12.8970   -6.0220  -26.0370 C   0  0  0  0  0  0  0  0  0  0  0  0
  -13.0800   -5.5710  -27.3580 C   0  0  0  0  0  0  0  0  0  0  0  0
  -14.3140   -4.7280  -27.7240 C   0  0  0  0  0  0  0  0  0  0  0  0
  -14.1490   -3.2970  -27.1690 C   0  0  0  0  0  0  0  0  0  0  0  0
  -15.5790   -5.3660  -27.1120 C   0  0  0  0  0  0  0  0  0  0  0  0
  -14.5560   -4.6030  -29.2450 C   0  0  0  0  0  0  0  0  0  0  0  0
  -12.0970   -5.9240  -28.2950 C   0  0  0  0  0  0  0  0  0  0  0  0
  -10.9790   -6.6880  -27.9290 C   0  0  0  0  0  0  0  0  0  0  0  0
   -8.7160   -8.1990  -27.1660 O   0  0  0  0  0  0  0  0  0  0  0  0
   -7.7600   -8.9250  -26.5140 C   0  0  0  0  0  0  0  0  0  0  0  0
   -6.5970   -9.3630  -27.3050 C   0  0  0  0  0  0  0  0  0  0  0  0
   -5.8300   -7.9830  -21.0030 C   0  0  0  0  0  0  0  0  0  0  0  0
   -5.4250   -6.7000  -20.6460 C   0  0  0  0  0  0  0  0  0  0  0  0
   -4.0760   -6.5210  -20.2890 O   0  0  0  0  0  0  0  0  0  0  0  0
   -3.5340   -5.2460  -20.1280 C   0  0  0  0  0  0  0  0  0  0  0  0
   -2.4070   -5.0970  -19.6660 O   0  0  0  0  0  0  0  0  0  0  0  0
  1  2  1  0
  2  3  1  0
  3  4  2  0
  5  3  1  1
  5  6  1  0
  6  7  1  0
  7  8  2  0
  8  9  1  0
  9 10  2  0
 10 11  1  0
 11 12  1  0
 12 13  1  0
 13 14  1  0
 14 15  1  0
 15 16  2  0
 16 17  1  0
 17 18  2  0
 18 19  1  0
 19 20  2  0
 20 21  1  0
 21 22  1  0
 21 23  1  0
 21 24  1  0
 20 25  1  0
 25 26  2  0
 16 27  1  0
 27 28  1  0
 28 29  1  0
 10 30  1  0
 30 31  2  0
 31 32  1  0
 32 33  1  0
 33 34  2  0
 33  5  1  0
 31  7  1  0
 28 14  2  0
 26 17  1  0
M  END
$$$$
