YPEJQZNLCKSDCY-ZWKOTPCHSA-N
     RDKit          3D

 35 38  0  0  0  0  0  0  0  0999 V2000
  129.3070  -20.8150  159.8820 C   0  0  0  0  0  0  0  0  0  0  0  0
  129.0340  -21.3230  161.2830 C   0  0  0  0  0  0  0  0  0  0  0  0
  127.2920  -21.5870  161.6020 S   0  0  0  0  0  0  0  0  0  0  0  0
  126.5430  -20.5320  160.9580 O   0  0  0  0  0  0  0  0  0  0  0  0
  126.9730  -22.9800  161.3510 O   0  0  0  0  0  0  0  0  0  0  0  0
  127.1790  -21.3650  163.2780 N   0  0  0  0  0  0  0  0  0  0  0  0
  126.1260  -20.4160  163.7590 C   0  0  0  0  0  0  0  0  0  0  0  0
  126.8950  -19.1770  164.2250 C   0  0  2  0  0  0  0  0  0  0  0  0
  127.2810  -18.3300  163.0860 N   0  0  0  0  0  0  0  0  0  0  0  0
  126.8160  -17.0470  162.9260 C   0  0  0  0  0  0  0  0  0  0  0  0
  126.0630  -16.5190  163.7410 O   0  0  0  0  0  0  0  0  0  0  0  0
  127.2770  -16.2950  161.7290 C   0  0  0  0  0  0  0  0  0  0  0  0
  127.8800  -17.0080  160.6920 C   0  0  0  0  0  0  0  0  0  0  0  0
  128.3230  -16.3490  159.5370 C   0  0  0  0  0  0  0  0  0  0  0  0
  128.1670  -14.9630  159.3790 C   0  0  0  0  0  0  0  0  0  0  0  0
  128.6340  -14.2680  158.1970 N   0  0  0  0  0  0  0  0  0  0  0  0
  129.7710  -13.4560  158.2490 C   0  0  0  0  0  0  0  0  0  0  0  0
  130.2370  -12.7920  157.1860 C   0  0  0  0  0  0  0  0  0  0  0  0
  129.5700  -12.8940  155.9220 C   0  0  0  0  0  0  0  0  0  0  0  0
  128.4810  -13.6590  155.8030 C   0  0  0  0  0  0  0  0  0  0  0  0
  127.9270  -14.4000  156.9760 C   0  0  0  0  0  0  0  0  0  0  0  0
  126.8880  -15.0310  156.7820 O   0  0  0  0  0  0  0  0  0  0  0  0
  127.5440  -14.2640  160.4290 C   0  0  0  0  0  0  0  0  0  0  0  0
  127.0980  -14.9180  161.5880 C   0  0  0  0  0  0  0  0  0  0  0  0
  128.0920  -19.8370  164.9310 C   0  0  2  0  0  0  0  0  0  0  0  0
  129.1560  -18.9110  165.2750 N   0  0  0  0  0  0  0  0  0  0  0  0
  129.9890  -19.1100  166.3550 C   0  0  0  0  0  0  0  0  0  0  0  0
  129.8700  -20.1180  167.0480 O   0  0  0  0  0  0  0  0  0  0  0  0
  130.9760  -18.0620  166.5840 C   0  0  0  0  0  0  0  0  0  0  0  0
  131.0390  -17.0790  167.5620 C   0  0  0  0  0  0  0  0  0  0  0  0
  132.1860  -16.2370  167.4230 C   0  0  0  0  0  0  0  0  0  0  0  0
  132.9470  -16.6140  166.3500 C   0  0  0  0  0  0  0  0  0  0  0  0
  134.4070  -15.8810  165.8210 Cl  0  0  0  0  0  0  0  0  0  0  0  0
  132.3210  -17.9410  165.5130 S   0  0  0  0  0  0  0  0  0  0  0  0
  128.4740  -20.9500  163.9370 C   0  0  0  0  0  0  0  0  0  0  0  0
  1  2  1  0
  2  3  1  0
  3  4  2  0
  3  5  2  0
  3  6  1  0
  6  7  1  0
  7  8  1  0
  8  9  1  6
  9 10  1  0
 10 11  2  0
 10 12  1  0
 12 13  2  0
 13 14  1  0
 14 15  2  0
 15 16  1  0
 16 17  1  0
 17 18  2  0
 18 19  1  0
 19 20  2  0
 20 21  1  0
 21 22  2  0
 15 23  1  0
 23 24  2  0
  8 25  1  0
 25 26  1  6
 26 27  1  0
 27 28  2  0
 27 29  1  0
 29 30  2  0
 30 31  1  0
 31 32  2  0
 32 33  1  0
 32 34  1  0
 25 35  1  0
 35  6  1  0
 24 12  1  0
 34 29  1  0
 21 16  1  0
M  END
$$$$
