ZSUHWNHDMNXZIQ-RBUKOAKNSA-N
     RDKit          3D

 39 43  0  0  0  0  0  0  0  0999 V2000
   12.2760  -27.7060   28.7330 C   0  0  0  0  0  0  0  0  0  0  0  0
   11.0810  -27.9280   27.8220 C   0  0  0  0  0  0  0  0  0  0  0  0
   10.2520  -26.7690   27.8980 O   0  0  0  0  0  0  0  0  0  0  0  0
   10.5600  -25.8050   26.9970 C   0  0  0  0  0  0  0  0  0  0  0  0
   11.2770  -24.7310   27.3390 N   0  0  0  0  0  0  0  0  0  0  0  0
   11.3830  -24.0580   26.1740 N   0  0  0  0  0  0  0  0  0  0  0  0
   12.0900  -22.8020   26.1410 C   0  0  0  0  0  0  0  0  0  0  0  0
   10.7660  -24.6720   25.1230 C   0  0  0  0  0  0  0  0  0  0  0  0
   10.2070  -25.8180   25.6300 C   0  0  0  0  0  0  0  0  0  0  0  0
    9.4750  -26.7590   24.9990 N   0  0  0  0  0  0  0  0  0  0  0  0
    8.1940  -26.7180   24.4500 C   0  0  0  0  0  0  0  0  0  0  0  0
    7.5710  -27.9020   24.3380 N   0  0  0  0  0  0  0  0  0  0  0  0
    6.3410  -27.8970   23.7890 C   0  0  0  0  0  0  0  0  0  0  0  0
    5.6990  -26.7680   23.3270 C   0  0  0  0  0  0  0  0  0  0  0  0
    4.3450  -26.8540   22.7060 C   0  0  0  0  0  0  0  0  0  0  0  0
    6.4390  -25.6100   23.4520 C   0  0  0  0  0  0  0  0  0  0  0  0
    5.9840  -24.3290   22.9380 C   0  0  0  0  0  0  0  0  0  0  0  0
    5.8730  -23.2050   23.7270 C   0  0  0  0  0  0  0  0  0  0  0  0
    5.4670  -22.1730   22.9290 N   0  0  0  0  0  0  0  0  0  0  0  0
    5.3470  -22.5770   21.6150 C   0  0  0  0  0  0  0  0  0  0  0  0
    5.0100  -21.8610   20.4530 C   0  0  0  0  0  0  0  0  0  0  0  0
    4.7110  -20.4910   20.3670 N   0  0  0  0  0  0  0  0  0  0  0  0
    3.5420  -19.8180   20.6680 C   0  0  0  0  0  0  0  0  0  0  0  0
    2.4930  -20.3140   21.0730 O   0  0  0  0  0  0  0  0  0  0  0  0
    3.6920  -18.2830   20.5170 C   0  0  1  0  0  0  0  0  0  0  0  0
    5.0100  -18.0570   19.7650 C   0  0  0  0  0  0  0  0  0  0  0  0
    2.4960  -17.7120   19.8190 N   0  0  0  0  0  0  0  0  0  0  0  0
    2.7160  -17.5810   18.3600 C   0  0  0  0  0  0  0  0  0  0  0  0
    1.5460  -16.8890   17.6220 C   0  0  0  0  0  0  0  0  0  0  0  0
    1.1310  -15.5870   18.1790 N   0  0  0  0  0  0  0  0  0  0  0  0
    2.0700  -14.5300   17.8090 C   0  0  0  0  0  0  0  0  0  0  0  0
    0.9710  -15.6820   19.6500 C   0  0  1  0  0  0  0  0  0  0  0  0
   -0.3450  -16.3990   19.9880 C   0  0  0  0  0  0  0  0  0  0  0  0
    2.1740  -16.3640   20.3620 C   0  0  0  0  0  0  0  0  0  0  0  0
    4.9830  -22.5890   19.2510 C   0  0  0  0  0  0  0  0  0  0  0  0
    5.2870  -23.9470   19.2040 C   0  0  0  0  0  0  0  0  0  0  0  0
    5.6330  -24.6320   20.3680 C   0  0  0  0  0  0  0  0  0  0  0  0
    5.6610  -23.9430   21.5980 C   0  0  0  0  0  0  0  0  0  0  0  0
    7.6580  -25.5680   24.0290 N   0  0  0  0  0  0  0  0  0  0  0  0
  1  2  1  0
  2  3  1  0
  3  4  1  0
  4  5  2  0
  5  6  1  0
  6  7  1  0
  6  8  1  0
  8  9  2  0
  9 10  1  0
 10 11  1  0
 11 12  2  0
 12 13  1  0
 13 14  2  0
 14 15  1  0
 14 16  1  0
 16 17  1  0
 17 18  2  0
 18 19  1  0
 19 20  1  0
 20 21  2  0
 21 22  1  0
 22 23  1  0
 23 24  2  0
 23 25  1  0
 25 26  1  6
 25 27  1  0
 27 28  1  0
 28 29  1  0
 29 30  1  0
 30 31  1  0
 30 32  1  0
 32 33  1  6
 32 34  1  0
 21 35  1  0
 35 36  2  0
 36 37  1  0
 37 38  2  0
 16 39  2  0
  9  4  1  0
 39 11  1  0
 38 17  1  0
 38 20  1  0
 34 27  1  0
M  END
$$$$
