JXXOAWDMPAWACX-HAQNSBGRSA-N
     RDKit          3D

 22 24  0  0  0  0  0  0  0  0999 V2000
    3.5800  -19.2310   22.7550 C   0  0  0  0  0  0  0  0  0  0  0  0
    4.9650  -19.8510   22.6600 C   0  0  0  0  0  0  0  0  0  0  0  0
    5.8530  -19.2090   21.6010 C   0  0  0  0  0  0  0  0  0  0  0  0
    5.9310  -20.1340   20.0750 S   0  0  0  0  0  0  0  0  0  0  0  0
    7.1060  -19.6990   19.3470 O   0  0  0  0  0  0  0  0  0  0  0  0
    4.6140  -20.1030   19.4680 O   0  0  0  0  0  0  0  0  0  0  0  0
    6.2300  -21.7990   20.6530 C   0  0  0  0  0  0  0  0  0  0  0  0
    5.2550  -22.7850   20.0190 C   0  0  1  0  0  0  0  0  0  0  0  0
    5.5790  -24.3020   20.0940 C   0  0  0  0  0  0  0  0  0  0  0  0
    4.7730  -24.3570   21.4220 C   0  0  2  0  0  0  0  0  0  0  0  0
    3.9690  -25.5380   21.5680 N   0  0  0  0  0  0  0  0  0  0  0  0
    2.5540  -25.5200   21.2090 C   0  0  0  0  0  0  0  0  0  0  0  0
    4.3800  -26.7680   22.1320 C   0  0  0  0  0  0  0  0  0  0  0  0
    3.5940  -27.8680   21.9290 N   0  0  0  0  0  0  0  0  0  0  0  0
    3.9730  -29.0610   22.4210 C   0  0  0  0  0  0  0  0  0  0  0  0
    5.0640  -29.3470   23.1430 N   0  0  0  0  0  0  0  0  0  0  0  0
    5.8020  -28.2490   23.3560 C   0  0  0  0  0  0  0  0  0  0  0  0
    6.9640  -28.2420   24.0780 N   0  0  0  0  0  0  0  0  0  0  0  0
    7.4590  -26.9680   24.1470 C   0  0  0  0  0  0  0  0  0  0  0  0
    6.5990  -26.1520   23.4420 C   0  0  0  0  0  0  0  0  0  0  0  0
    5.5460  -26.9570   22.9100 C   0  0  0  0  0  0  0  0  0  0  0  0
    4.0150  -23.1080   20.8900 C   0  0  0  0  0  0  0  0  0  0  0  0
  1  2  1  0
  2  3  1  0
  3  4  1  0
  4  5  2  0
  4  6  2  0
  4  7  1  0
  8  7  1  1
  8  9  1  0
  9 10  1  0
 10 11  1  6
 11 12  1  0
 11 13  1  0
 13 14  2  0
 14 15  1  0
 15 16  2  0
 16 17  1  0
 17 18  1  0
 18 19  1  0
 19 20  2  0
 20 21  1  0
 10 22  1  0
 22  8  1  0
 21 13  1  0
 21 17  2  0
M  END
$$$$
