JXXOAWDMPAWACX-HAQNSBGRSA-N
     RDKit          3D

 22 24  0  0  0  0  0  0  0  0999 V2000
    3.8300  -19.4130   22.9660 C   0  0  0  0  0  0  0  0  0  0  0  0
    4.4240  -18.5560   21.8590 C   0  0  0  0  0  0  0  0  0  0  0  0
    5.7890  -19.0360   21.3790 C   0  0  0  0  0  0  0  0  0  0  0  0
    5.7850  -19.6350   19.6950 S   0  0  0  0  0  0  0  0  0  0  0  0
    6.8530  -18.9650   18.9800 O   0  0  0  0  0  0  0  0  0  0  0  0
    4.4170  -19.6000   19.2140 O   0  0  0  0  0  0  0  0  0  0  0  0
    6.2510  -21.3480   19.8980 C   0  0  0  0  0  0  0  0  0  0  0  0
    6.4770  -21.6870   21.3680 C   0  0  1  0  0  0  0  0  0  0  0  0
    5.4710  -22.6350   22.0750 C   0  0  0  0  0  0  0  0  0  0  0  0
    6.3780  -23.8270   21.6590 C   0  0  2  0  0  0  0  0  0  0  0  0
    6.5100  -24.8390   22.6680 N   0  0  0  0  0  0  0  0  0  0  0  0
    7.4730  -24.6840   23.7530 C   0  0  0  0  0  0  0  0  0  0  0  0
    5.8430  -26.0870   22.6970 C   0  0  0  0  0  0  0  0  0  0  0  0
    6.4700  -27.1430   23.2960 N   0  0  0  0  0  0  0  0  0  0  0  0
    5.8500  -28.3340   23.3730 C   0  0  0  0  0  0  0  0  0  0  0  0
    4.6400  -28.6660   22.9030 N   0  0  0  0  0  0  0  0  0  0  0  0
    4.0580  -27.6250   22.2920 C   0  0  0  0  0  0  0  0  0  0  0  0
    2.8250  -27.6810   21.7030 N   0  0  0  0  0  0  0  0  0  0  0  0
    2.5270  -26.4720   21.1360 C   0  0  0  0  0  0  0  0  0  0  0  0
    3.5890  -25.6270   21.3820 C   0  0  0  0  0  0  0  0  0  0  0  0
    4.5670  -26.3400   22.1400 C   0  0  0  0  0  0  0  0  0  0  0  0
    7.5370  -22.7910   21.6140 C   0  0  0  0  0  0  0  0  0  0  0  0
  1  2  1  0
  2  3  1  0
  3  4  1  0
  4  5  2  0
  4  6  2  0
  4  7  1  0
  8  7  1  6
  8  9  1  0
  9 10  1  0
 10 11  1  1
 11 12  1  0
 11 13  1  0
 13 14  2  0
 14 15  1  0
 15 16  2  0
 16 17  1  0
 17 18  1  0
 18 19  1  0
 19 20  2  0
 20 21  1  0
 10 22  1  0
 22  8  1  0
 21 13  1  0
 21 17  2  0
M  END
$$$$
