OLSNNSDAOCWUDV-UHFFFAOYSA-N
     RDKit          3D

 34 36  0  0  0  0  0  0  0  0999 V2000
   -2.6020   -6.2880  -19.6370 C   0  0  0  0  0  0  0  0  0  0  0  0
   -4.0030   -6.8840  -19.6290 C   0  0  0  0  0  0  0  0  0  0  0  0
   -4.7730   -6.6420  -20.9300 C   0  0  0  0  0  0  0  0  0  0  0  0
   -6.2060   -6.5340  -20.7250 N   0  0  0  0  0  0  0  0  0  0  0  0
   -7.2000   -7.3810  -21.0540 C   0  0  0  0  0  0  0  0  0  0  0  0
   -6.9570   -8.7180  -21.6980 C   0  0  0  0  0  0  0  0  0  0  0  0
   -8.1680   -9.1790  -22.5160 C   0  0  0  0  0  0  0  0  0  0  0  0
   -8.0170   -9.0150  -24.0340 C   0  0  0  0  0  0  0  0  0  0  0  0
   -9.2970   -8.6270  -24.7310 C   0  0  0  0  0  0  0  0  0  0  0  0
  -10.4740   -8.4280  -24.0030 C   0  0  0  0  0  0  0  0  0  0  0  0
  -11.6560   -8.0740  -24.6610 C   0  0  0  0  0  0  0  0  0  0  0  0
  -11.6910   -7.9270  -26.0500 C   0  0  0  0  0  0  0  0  0  0  0  0
  -12.9160   -7.5890  -26.5420 O   0  0  0  0  0  0  0  0  0  0  0  0
  -13.3680   -6.2310  -26.6120 C   0  0  0  0  0  0  0  0  0  0  0  0
  -12.2150   -5.2850  -26.9850 C   0  0  0  0  0  0  0  0  0  0  0  0
  -14.3670   -6.2390  -27.7840 C   0  0  0  0  0  0  0  0  0  0  0  0
  -14.1780   -5.7440  -25.3960 C   0  0  0  0  0  0  0  0  0  0  0  0
  -14.2320   -4.6080  -24.9490 O   0  0  0  0  0  0  0  0  0  0  0  0
  -14.8520   -6.7290  -24.7630 O   0  0  0  0  0  0  0  0  0  0  0  0
  -10.5170   -8.1120  -26.7740 C   0  0  0  0  0  0  0  0  0  0  0  0
   -9.3290   -8.4600  -26.1190 C   0  0  0  0  0  0  0  0  0  0  0  0
   -8.3940   -6.9720  -20.7340 N   0  0  0  0  0  0  0  0  0  0  0  0
   -8.1740   -5.7580  -20.1280 N   0  0  0  0  0  0  0  0  0  0  0  0
   -9.2180   -4.9790  -19.5110 C   0  0  0  0  0  0  0  0  0  0  0  0
  -10.0500   -5.8110  -18.5650 C   0  0  0  0  0  0  0  0  0  0  0  0
  -10.2150   -7.1840  -18.7800 C   0  0  0  0  0  0  0  0  0  0  0  0
  -10.9610   -7.9520  -17.8870 C   0  0  0  0  0  0  0  0  0  0  0  0
  -11.5450   -7.3570  -16.7650 C   0  0  0  0  0  0  0  0  0  0  0  0
  -11.3810   -5.9930  -16.5290 C   0  0  0  0  0  0  0  0  0  0  0  0
  -11.8920   -5.2920  -15.4720 O   0  0  0  0  0  0  0  0  0  0  0  0
  -13.3080   -5.1990  -15.3890 C   0  0  0  0  0  0  0  0  0  0  0  0
  -10.6300   -5.2280  -17.4290 C   0  0  0  0  0  0  0  0  0  0  0  0
   -6.8130   -5.4680  -20.1030 C   0  0  0  0  0  0  0  0  0  0  0  0
   -6.2710   -4.4820  -19.6290 O   0  0  0  0  0  0  0  0  0  0  0  0
  1  2  1  0
  2  3  1  0
  3  4  1  0
  4  5  1  0
  5  6  1  0
  6  7  1  0
  7  8  1  0
  8  9  1  0
  9 10  2  0
 10 11  1  0
 11 12  2  0
 12 13  1  0
 13 14  1  0
 14 15  1  0
 14 16  1  0
 14 17  1  0
 17 18  2  0
 17 19  1  0
 12 20  1  0
 20 21  2  0
  5 22  2  0
 22 23  1  0
 23 24  1  0
 24 25  1  0
 25 26  2  0
 26 27  1  0
 27 28  2  0
 28 29  1  0
 29 30  1  0
 30 31  1  0
 29 32  2  0
 23 33  1  0
 33 34  2  0
 33  4  1  0
 21  9  1  0
 32 25  1  0
M  END
$$$$
