DVXZLEHKUCHABK-CTNGQTDRSA-N
     RDKit          3D

 30 34  0  0  0  0  0  0  0  0999 V2000
   -3.3700   20.8750  -28.3330 C   0  0  0  0  0  0  0  0  0  0  0  0
   -2.0160   21.5570  -28.4670 C   0  0  0  0  0  0  0  0  0  0  0  0
   -1.7650   22.6440  -27.4010 C   0  0  0  0  0  0  0  0  0  0  0  0
   -2.0810   22.1600  -25.9720 C   0  0  0  0  0  0  0  0  0  0  0  0
   -0.8690   22.2000  -25.0460 C   0  0  0  0  0  0  0  0  0  0  0  0
   -2.5110   23.8580  -27.7440 N   0  0  0  0  0  0  0  0  0  0  0  0
   -2.8820   24.2810  -28.9880 C   0  0  0  0  0  0  0  0  0  0  0  0
   -3.5640   25.4750  -28.8230 C   0  0  0  0  0  0  0  0  0  0  0  0
   -4.1260   26.2790  -29.8900 C   0  0  0  0  0  0  0  0  0  0  0  0
   -4.1040   27.5750  -29.7400 N   0  0  0  0  0  0  0  0  0  0  0  0
   -4.6620   28.3730  -30.7250 C   0  0  0  0  0  0  0  0  0  0  0  0
   -4.5870   29.7780  -30.4510 C   0  0  0  0  0  0  0  0  0  0  0  0
   -4.9880   30.8500  -31.2800 C   0  0  0  0  0  0  0  0  0  0  0  0
   -4.7810   32.0460  -30.7180 N   0  0  0  0  0  0  0  0  0  0  0  0
   -4.2470   31.7410  -29.5170 N   0  0  0  0  0  0  0  0  0  0  0  0
   -3.8780   32.7840  -28.5850 C   0  0  2  0  0  0  0  0  0  0  0  0
   -3.8090   32.3150  -27.1290 C   0  0  0  0  0  0  0  0  0  0  0  0
   -3.9520   33.5910  -26.2940 C   0  0  0  0  0  0  0  0  0  0  0  0
   -4.2930   34.7190  -27.2760 C   0  0  0  0  0  0  0  0  0  0  0  0
   -4.8150   34.0010  -28.5160 C   0  0  2  0  0  0  0  0  0  0  0  0
   -6.1780   33.6570  -28.2670 O   0  0  0  0  0  0  0  0  0  0  0  0
   -4.1080   30.3940  -29.3140 C   0  0  0  0  0  0  0  0  0  0  0  0
   -5.2250   27.8560  -31.8300 C   0  0  0  0  0  0  0  0  0  0  0  0
   -5.2380   26.4860  -32.0100 N   0  0  0  0  0  0  0  0  0  0  0  0
   -5.7380   25.7870  -33.0570 N   0  0  0  0  0  0  0  0  0  0  0  0
   -5.4370   24.5180  -32.7860 C   0  0  0  0  0  0  0  0  0  0  0  0
   -4.7640   24.3730  -31.5620 C   0  0  0  0  0  0  0  0  0  0  0  0
   -4.6760   25.6540  -31.0620 C   0  0  0  0  0  0  0  0  0  0  0  0
   -3.5060   25.6890  -27.4270 C   0  0  0  0  0  0  0  0  0  0  0  0
   -2.8880   24.7040  -26.7680 N   0  0  0  0  0  0  0  0  0  0  0  0
  1  2  1  0
  2  3  1  0
  3  4  1  0
  4  5  1  0
  3  6  1  0
  6  7  1  0
  7  8  2  0
  8  9  1  0
  9 10  2  0
 10 11  1  0
 11 12  1  0
 12 13  1  0
 13 14  2  0
 14 15  1  0
 16 15  1  6
 16 17  1  0
 17 18  1  0
 18 19  1  0
 19 20  1  0
 20 21  1  1
 15 22  1  0
 11 23  2  0
 23 24  1  0
 24 25  1  0
 25 26  2  0
 26 27  1  0
 27 28  2  0
  8 29  1  0
 29 30  2  0
 30  6  1  0
 28  9  1  0
 22 12  2  0
 28 24  1  0
 20 16  1  0
M  END
$$$$
