PBDWKKSYCSLCRJ-UHFFFAOYSA-N
     RDKit          3D

 37 40  0  0  0  0  0  0  0  0999 V2000
   14.7980   28.6130    6.2220 C   0  0  0  0  0  0  0  0  0  0  0  0
   15.2340   29.3590    7.4810 C   0  0  0  0  0  0  0  0  0  0  0  0
   16.6870   29.5690    7.5750 N   0  0  0  0  0  0  0  0  0  0  0  0
   17.4540   28.9460    6.4800 C   0  0  0  0  0  0  0  0  0  0  0  0
   18.6880   29.7070    6.0000 C   0  0  0  0  0  0  0  0  0  0  0  0
   17.0180   31.0110    7.6960 C   0  0  0  0  0  0  0  0  0  0  0  0
   15.8790   31.8500    8.3080 C   0  0  0  0  0  0  0  0  0  0  0  0
   16.1280   32.1490    9.7040 N   0  0  0  0  0  0  0  0  0  0  0  0
   16.4840   33.4000   10.1350 C   0  0  0  0  0  0  0  0  0  0  0  0
   16.6190   34.3510    9.3710 O   0  0  0  0  0  0  0  0  0  0  0  0
   16.7760   33.5060   11.5500 C   0  0  0  0  0  0  0  0  0  0  0  0
   15.8380   34.0370   12.4010 N   0  0  0  0  0  0  0  0  0  0  0  0
   16.3190   34.1300   13.6800 C   0  0  0  0  0  0  0  0  0  0  0  0
   15.7110   34.6440   14.8100 C   0  0  0  0  0  0  0  0  0  0  0  0
   16.4020   34.6100   15.9560 N   0  0  0  0  0  0  0  0  0  0  0  0
   17.6810   34.0800   16.0020 N   0  0  0  0  0  0  0  0  0  0  0  0
   18.3270   33.5590   14.9220 C   0  0  0  0  0  0  0  0  0  0  0  0
   19.6360   33.0590   15.0160 N   0  0  0  0  0  0  0  0  0  0  0  0
   20.8980   33.6310   14.7700 C   0  0  0  0  0  0  0  0  0  0  0  0
   21.1240   34.6760   13.8650 C   0  0  0  0  0  0  0  0  0  0  0  0
   22.4050   35.2060   13.6710 C   0  0  0  0  0  0  0  0  0  0  0  0
   23.4800   34.7110   14.4020 C   0  0  0  0  0  0  0  0  0  0  0  0
   24.7210   35.2470   14.1880 O   0  0  0  0  0  0  0  0  0  0  0  0
   25.0750   35.1930   12.7990 C   0  0  0  0  0  0  0  0  0  0  0  0
   25.7020   33.8590   12.4760 C   0  0  0  0  0  0  0  0  0  0  0  0
   25.1680   33.0480   11.4600 C   0  0  0  0  0  0  0  0  0  0  0  0
   25.7380   31.8080   11.1640 C   0  0  0  0  0  0  0  0  0  0  0  0
   26.8440   31.3620   11.8840 C   0  0  0  0  0  0  0  0  0  0  0  0
   27.3750   32.1630   12.8880 C   0  0  0  0  0  0  0  0  0  0  0  0
   28.4340   31.7310   13.5850 F   0  0  0  0  0  0  0  0  0  0  0  0
   26.8180   33.4020   13.1890 C   0  0  0  0  0  0  0  0  0  0  0  0
   23.2840   33.6590   15.2960 C   0  0  0  0  0  0  0  0  0  0  0  0
   24.5920   32.9980   16.2070 Cl  0  0  0  0  0  0  0  0  0  0  0  0
   22.0030   33.1310   15.4810 C   0  0  0  0  0  0  0  0  0  0  0  0
   17.6020   33.5800   13.6920 C   0  0  0  0  0  0  0  0  0  0  0  0
   17.8620   33.1220   12.3360 C   0  0  0  0  0  0  0  0  0  0  0  0
   19.0570   32.3500   11.8840 C   0  0  0  0  0  0  0  0  0  0  0  0
  1  2  1  0
  2  3  1  0
  3  4  1  0
  4  5  1  0
  3  6  1  0
  6  7  1  0
  7  8  1  0
  8  9  1  0
  9 10  2  0
  9 11  1  0
 11 12  1  0
 12 13  1  0
 13 14  2  0
 14 15  1  0
 15 16  2  0
 16 17  1  0
 17 18  1  0
 18 19  1  0
 19 20  2  0
 20 21  1  0
 21 22  2  0
 22 23  1  0
 23 24  1  0
 24 25  1  0
 25 26  2  0
 26 27  1  0
 27 28  2  0
 28 29  1  0
 29 30  1  0
 29 31  2  0
 22 32  1  0
 32 33  1  0
 32 34  2  0
 17 35  2  0
 35 36  1  0
 36 37  1  0
 36 11  2  0
 35 13  1  0
 34 19  1  0
 31 25  1  0
M  END
$$$$
