SOKGUCREKPAHNX-UHFFFAOYSA-N
     RDKit          3D

 39 41  0  0  0  0  0  0  0  0999 V2000
   -2.4410   -6.1460  -19.8570 C   0  0  0  0  0  0  0  0  0  0  0  0
   -3.8620   -5.8150  -20.2140 C   0  0  0  0  0  0  0  0  0  0  0  0
   -4.8350   -6.8260  -20.2300 C   0  0  0  0  0  0  0  0  0  0  0  0
   -6.1660   -6.5320  -20.5410 C   0  0  0  0  0  0  0  0  0  0  0  0
   -7.0340   -7.6030  -20.5610 O   0  0  0  0  0  0  0  0  0  0  0  0
   -7.3780   -8.1120  -21.7910 C   0  0  0  0  0  0  0  0  0  0  0  0
   -6.7840   -9.3080  -22.1920 C   0  0  0  0  0  0  0  0  0  0  0  0
   -7.1290   -9.8700  -23.4200 C   0  0  0  0  0  0  0  0  0  0  0  0
   -8.0760   -9.2420  -24.2310 C   0  0  0  0  0  0  0  0  0  0  0  0
   -8.7000   -8.0520  -23.8210 C   0  0  0  0  0  0  0  0  0  0  0  0
   -9.7610   -7.4190  -24.6860 C   0  0  0  0  0  0  0  0  0  0  0  0
   -9.3300   -7.4050  -26.0670 N   0  0  0  0  0  0  0  0  0  0  0  0
   -9.9900   -8.1130  -27.0410 C   0  0  0  0  0  0  0  0  0  0  0  0
  -10.9290   -8.8700  -26.8490 O   0  0  0  0  0  0  0  0  0  0  0  0
   -9.5110   -7.8820  -28.4240 C   0  0  0  0  0  0  0  0  0  0  0  0
  -10.3340   -7.1770  -29.3170 C   0  0  0  0  0  0  0  0  0  0  0  0
   -9.9060   -6.9250  -30.6220 C   0  0  0  0  0  0  0  0  0  0  0  0
   -8.6440   -7.3610  -31.0490 C   0  0  0  0  0  0  0  0  0  0  0  0
   -8.1870   -7.1100  -32.4700 C   0  0  0  0  0  0  0  0  0  0  0  0
   -8.0500   -5.7870  -32.7610 F   0  0  0  0  0  0  0  0  0  0  0  0
   -6.9850   -7.6830  -32.7530 F   0  0  0  0  0  0  0  0  0  0  0  0
   -9.0650   -7.6060  -33.3830 F   0  0  0  0  0  0  0  0  0  0  0  0
   -7.8270   -8.0650  -30.1460 C   0  0  0  0  0  0  0  0  0  0  0  0
   -8.2460   -8.3370  -28.8270 C   0  0  0  0  0  0  0  0  0  0  0  0
   -7.3410   -9.1060  -27.8930 C   0  0  0  0  0  0  0  0  0  0  0  0
   -6.3060   -9.7010  -28.5630 F   0  0  0  0  0  0  0  0  0  0  0  0
   -7.9610  -10.1300  -27.2460 F   0  0  0  0  0  0  0  0  0  0  0  0
   -6.7500   -8.3280  -26.9510 F   0  0  0  0  0  0  0  0  0  0  0  0
   -8.3480   -7.4940  -22.5860 C   0  0  0  0  0  0  0  0  0  0  0  0
   -6.5310   -5.2230  -20.8580 C   0  0  0  0  0  0  0  0  0  0  0  0
   -5.5680   -4.2110  -20.8570 C   0  0  0  0  0  0  0  0  0  0  0  0
   -4.2340   -4.5110  -20.5720 C   0  0  0  0  0  0  0  0  0  0  0  0
   -3.2660   -3.5450  -20.5630 O   0  0  0  0  0  0  0  0  0  0  0  0
   -3.6440   -2.2250  -21.0060 C   0  0  0  0  0  0  0  0  0  0  0  0
   -2.3520   -1.6460  -21.6070 C   0  0  0  0  0  0  0  0  0  0  0  0
   -4.7190   -2.2260  -22.1050 C   0  0  0  0  0  0  0  0  0  0  0  0
   -4.0220   -1.2960  -19.8380 C   0  0  0  0  0  0  0  0  0  0  0  0
   -4.8680   -0.4150  -19.8380 O   0  0  0  0  0  0  0  0  0  0  0  0
   -3.3480   -1.5580  -18.6960 O   0  0  0  0  0  0  0  0  0  0  0  0
  1  2  1  0
  2  3  2  0
  3  4  1  0
  4  5  1  0
  5  6  1  0
  6  7  2  0
  7  8  1  0
  8  9  2  0
  9 10  1  0
 10 11  1  0
 11 12  1  0
 12 13  1  0
 13 14  2  0
 13 15  1  0
 15 16  2  0
 16 17  1  0
 17 18  2  0
 18 19  1  0
 19 20  1  0
 19 21  1  0
 19 22  1  0
 18 23  1  0
 23 24  2  0
 24 25  1  0
 25 26  1  0
 25 27  1  0
 25 28  1  0
 10 29  2  0
  4 30  2  0
 30 31  1  0
 31 32  2  0
 32 33  1  0
 33 34  1  0
 34 35  1  0
 34 36  1  0
 34 37  1  0
 37 38  2  0
 37 39  1  0
 32  2  1  0
 29  6  1  0
 24 15  1  0
M  END
$$$$
