PUUJLIQLJNLBPS-HSZRJFAPSA-N
     RDKit          3D

 42 46  0  0  0  0  0  0  0  0999 V2000
    1.4530  -16.7360   16.2350 C   0  0  0  0  0  0  0  0  0  0  0  0
    2.0640  -15.6950   17.1690 C   0  0  0  0  0  0  0  0  0  0  0  0
    1.4410  -15.7230   18.5860 C   0  0  2  0  0  0  0  0  0  0  0  0
    1.8040  -17.0870   19.2330 C   0  0  0  0  0  0  0  0  0  0  0  0
    1.1480  -18.0950   18.9800 O   0  0  0  0  0  0  0  0  0  0  0  0
    2.8880  -16.9990   20.0870 N   0  0  0  0  0  0  0  0  0  0  0  0
    3.4800  -17.9910   20.8920 C   0  0  0  0  0  0  0  0  0  0  0  0
    2.8750  -18.2360   22.1380 C   0  0  0  0  0  0  0  0  0  0  0  0
    3.3840  -19.1760   23.0290 C   0  0  0  0  0  0  0  0  0  0  0  0
    4.5180  -19.9190   22.6990 C   0  0  0  0  0  0  0  0  0  0  0  0
    5.1500  -19.7220   21.4520 C   0  0  0  0  0  0  0  0  0  0  0  0
    6.3110  -20.2950   20.8240 C   0  0  0  0  0  0  0  0  0  0  0  0
    7.2360  -21.3110   21.3240 C   0  0  0  0  0  0  0  0  0  0  0  0
    6.6800  -22.2760   22.1000 N   0  0  0  0  0  0  0  0  0  0  0  0
    7.4890  -23.2090   22.6280 C   0  0  0  0  0  0  0  0  0  0  0  0
    6.8590  -24.1580   23.4230 N   0  0  0  0  0  0  0  0  0  0  0  0
    6.2770  -25.4080   23.1700 C   0  0  0  0  0  0  0  0  0  0  0  0
    6.8570  -26.6270   23.5390 C   0  0  0  0  0  0  0  0  0  0  0  0
    6.2260  -27.8430   23.2630 C   0  0  0  0  0  0  0  0  0  0  0  0
    4.9970  -27.8610   22.6090 C   0  0  0  0  0  0  0  0  0  0  0  0
    4.4060  -26.6560   22.2240 C   0  0  0  0  0  0  0  0  0  0  0  0
    2.8440  -26.7210   21.4100 S   0  0  0  0  0  0  0  0  0  0  0  0
    2.3910  -28.4170   21.1840 C   0  0  0  0  0  0  0  0  0  0  0  0
    1.8830  -26.1100   22.3100 O   0  0  0  0  0  0  0  0  0  0  0  0
    3.0630  -26.1760   20.0810 O   0  0  0  0  0  0  0  0  0  0  0  0
    5.0380  -25.4500   22.5010 C   0  0  0  0  0  0  0  0  0  0  0  0
    4.4860  -24.2830   22.1320 F   0  0  0  0  0  0  0  0  0  0  0  0
    8.8130  -23.2400   22.4130 N   0  0  0  0  0  0  0  0  0  0  0  0
    9.3330  -22.2770   21.6260 C   0  0  0  0  0  0  0  0  0  0  0  0
    8.5870  -21.2800   21.0540 C   0  0  0  0  0  0  0  0  0  0  0  0
    9.1830  -20.3400   20.3100 F   0  0  0  0  0  0  0  0  0  0  0  0
    6.4300  -19.6830   19.5920 C   0  0  0  0  0  0  0  0  0  0  0  0
    5.4200  -18.7710   19.4660 N   0  0  0  0  0  0  0  0  0  0  0  0
    4.6150  -18.7600   20.5820 C   0  0  0  0  0  0  0  0  0  0  0  0
   -0.0420  -15.5540   18.5660 N   0  0  0  0  0  0  0  0  0  0  0  0
   -0.5170  -14.2360   18.1210 C   0  0  0  0  0  0  0  0  0  0  0  0
   -1.8490  -14.1420   17.3660 C   0  0  0  0  0  0  0  0  0  0  0  0
   -3.0790  -14.7470   18.0430 C   0  0  0  0  0  0  0  0  0  0  0  0
   -2.9010  -16.1130   18.5490 N   0  0  0  0  0  0  0  0  0  0  0  0
   -4.2140  -16.7580   18.6840 C   0  0  0  0  0  0  0  0  0  0  0  0
   -2.2390  -16.0980   19.8730 C   0  0  0  0  0  0  0  0  0  0  0  0
   -0.7080  -15.9080   19.8430 C   0  0  0  0  0  0  0  0  0  0  0  0
  1  2  1  0
  3  2  1  6
  3  4  1  0
  4  5  2  0
  4  6  1  0
  6  7  1  0
  7  8  2  0
  8  9  1  0
  9 10  2  0
 10 11  1  0
 11 12  1  0
 12 13  1  0
 13 14  2  0
 14 15  1  0
 15 16  1  0
 16 17  1  0
 17 18  2  0
 18 19  1  0
 19 20  2  0
 20 21  1  0
 21 22  1  0
 22 23  1  0
 22 24  2  0
 22 25  2  0
 21 26  2  0
 26 27  1  0
 15 28  2  0
 28 29  1  0
 29 30  2  0
 30 31  1  0
 12 32  2  0
 32 33  1  0
 33 34  1  0
  3 35  1  0
 35 36  1  0
 36 37  1  0
 37 38  1  0
 38 39  1  0
 39 40  1  0
 39 41  1  0
 41 42  1  0
 34  7  1  0
 42 35  1  0
 34 11  2  0
 30 13  1  0
 26 17  1  0
M  END
$$$$
