IAFWMQLCVYEVEF-UHFFFAOYSA-N
     RDKit          3D

 29 31  0  0  0  0  0  0  0  0999 V2000
    2.5030    5.9470   -2.9030 C   0  0  0  0  0  0  0  0  0  0  0  0
    3.3740    6.4400   -4.0220 C   0  0  0  0  0  0  0  0  0  0  0  0
    2.9900    7.5520   -4.7790 C   0  0  0  0  0  0  0  0  0  0  0  0
    3.7850    7.9910   -5.8370 C   0  0  0  0  0  0  0  0  0  0  0  0
    4.9640    7.3140   -6.1530 C   0  0  0  0  0  0  0  0  0  0  0  0
    5.3650    6.1870   -5.4200 C   0  0  0  0  0  0  0  0  0  0  0  0
    6.5970    5.4970   -5.7820 C   0  0  0  0  0  0  0  0  0  0  0  0
    7.5300    5.8380   -6.6460 N   0  0  0  0  0  0  0  0  0  0  0  0
    8.4290    4.8030   -6.5300 C   0  0  0  0  0  0  0  0  0  0  0  0
    9.6870    4.7380   -7.3280 C   0  0  0  0  0  0  0  0  0  0  0  0
   10.2540    6.0410   -7.5060 O   0  0  0  0  0  0  0  0  0  0  0  0
   10.3210    6.5230   -8.7830 C   0  0  0  0  0  0  0  0  0  0  0  0
   10.2240    7.8600   -9.1670 C   0  0  0  0  0  0  0  0  0  0  0  0
   10.3100    8.2110  -10.5180 C   0  0  0  0  0  0  0  0  0  0  0  0
   10.4950    7.2320  -11.5030 C   0  0  0  0  0  0  0  0  0  0  0  0
   10.5600    7.6170  -12.9660 C   0  0  0  0  0  0  0  0  0  0  0  0
   11.6460    8.6690  -13.2320 C   0  0  1  0  0  0  0  0  0  0  0  0
   11.4490    9.7490  -12.3100 O   0  0  0  0  0  0  0  0  0  0  0  0
   11.2760   11.0250  -12.9320 C   0  0  0  0  0  0  0  0  0  0  0  0
   10.9060   10.8360  -14.4000 C   0  0  0  0  0  0  0  0  0  0  0  0
   10.1540   11.7400  -12.1900 C   0  0  0  0  0  0  0  0  0  0  0  0
   13.0220    8.0190  -13.0570 C   0  0  0  0  0  0  0  0  0  0  0  0
   13.2870    6.9830  -12.4690 O   0  0  0  0  0  0  0  0  0  0  0  0
   14.0210    8.7490  -13.6010 O   0  0  0  0  0  0  0  0  0  0  0  0
   10.5880    5.8920  -11.1140 C   0  0  0  0  0  0  0  0  0  0  0  0
   10.5030    5.5440   -9.7640 C   0  0  0  0  0  0  0  0  0  0  0  0
    8.0740    3.8450   -5.6620 N   0  0  0  0  0  0  0  0  0  0  0  0
    6.8570    4.3080   -5.1570 O   0  0  0  0  0  0  0  0  0  0  0  0
    4.5540    5.7580   -4.3560 C   0  0  0  0  0  0  0  0  0  0  0  0
  1  2  1  0
  2  3  2  0
  3  4  1  0
  4  5  2  0
  5  6  1  0
  6  7  1  0
  7  8  2  0
  8  9  1  0
  9 10  1  0
 10 11  1  0
 11 12  1  0
 12 13  2  0
 13 14  1  0
 14 15  2  0
 15 16  1  0
 17 16  1  1
 17 18  1  0
 18 19  1  0
 19 20  1  0
 19 21  1  0
 17 22  1  0
 22 23  2  0
 22 24  1  0
 15 25  1  0
 25 26  2  0
  9 27  2  0
 27 28  1  0
  6 29  2  0
 29  2  1  0
 28  7  1  0
 26 12  1  0
M  END
$$$$
