IAFWMQLCVYEVEF-UHFFFAOYSA-N
     RDKit          3D

 29 31  0  0  0  0  0  0  0  0999 V2000
   12.2250    0.8300   -2.6040 C   0  0  0  0  0  0  0  0  0  0  0  0
   11.1050    1.7560   -2.9830 C   0  0  0  0  0  0  0  0  0  0  0  0
   10.1390    2.1200   -2.0400 C   0  0  0  0  0  0  0  0  0  0  0  0
    9.0840    2.9550   -2.4010 C   0  0  0  0  0  0  0  0  0  0  0  0
    8.9800    3.4240   -3.7110 C   0  0  0  0  0  0  0  0  0  0  0  0
    9.9260    3.0620   -4.6810 C   0  0  0  0  0  0  0  0  0  0  0  0
    9.7840    3.5610   -6.0440 C   0  0  0  0  0  0  0  0  0  0  0  0
    9.6460    2.9000   -7.1730 N   0  0  0  0  0  0  0  0  0  0  0  0
    9.5500    3.9140   -8.0980 C   0  0  0  0  0  0  0  0  0  0  0  0
    9.3780    3.6570   -9.5560 C   0  0  0  0  0  0  0  0  0  0  0  0
   10.6180    3.8030  -10.2570 O   0  0  0  0  0  0  0  0  0  0  0  0
   10.7630    4.9100  -11.0460 C   0  0  0  0  0  0  0  0  0  0  0  0
    9.7600    5.5260  -11.7930 C   0  0  0  0  0  0  0  0  0  0  0  0
   10.0520    6.6590  -12.5610 C   0  0  0  0  0  0  0  0  0  0  0  0
   11.3480    7.1910  -12.5910 C   0  0  0  0  0  0  0  0  0  0  0  0
   11.6630    8.4000  -13.4440 C   0  0  0  0  0  0  0  0  0  0  0  0
   10.8230    9.6200  -13.0390 C   0  0  1  0  0  0  0  0  0  0  0  0
   11.3250   10.1040  -11.7860 O   0  0  0  0  0  0  0  0  0  0  0  0
   10.3080   10.4370  -10.8380 C   0  0  0  0  0  0  0  0  0  0  0  0
    9.8180    9.1710  -10.1420 C   0  0  0  0  0  0  0  0  0  0  0  0
   10.9300   11.3920   -9.8260 C   0  0  0  0  0  0  0  0  0  0  0  0
   10.9260   10.6820  -14.1380 C   0  0  0  0  0  0  0  0  0  0  0  0
   10.5410   11.8400  -14.0930 O   0  0  0  0  0  0  0  0  0  0  0  0
   11.4740   10.2070  -15.2780 O   0  0  0  0  0  0  0  0  0  0  0  0
   12.3510    6.5660  -11.8420 C   0  0  0  0  0  0  0  0  0  0  0  0
   12.0570    5.4360  -11.0760 C   0  0  0  0  0  0  0  0  0  0  0  0
    9.6480    5.1500   -7.5880 N   0  0  0  0  0  0  0  0  0  0  0  0
    9.7970    4.9190   -6.2190 O   0  0  0  0  0  0  0  0  0  0  0  0
   10.9850    2.2210   -4.3020 C   0  0  0  0  0  0  0  0  0  0  0  0
  1  2  1  0
  2  3  2  0
  3  4  1  0
  4  5  2  0
  5  6  1  0
  6  7  1  0
  7  8  2  0
  8  9  1  0
  9 10  1  0
 10 11  1  0
 11 12  1  0
 12 13  2  0
 13 14  1  0
 14 15  2  0
 15 16  1  0
 17 16  1  6
 17 18  1  0
 18 19  1  0
 19 20  1  0
 19 21  1  0
 17 22  1  0
 22 23  2  0
 22 24  1  0
 15 25  1  0
 25 26  2  0
  9 27  2  0
 27 28  1  0
  6 29  2  0
 29  2  1  0
 28  7  1  0
 26 12  1  0
M  END
$$$$
