XXZBELJQKKGJRL-FMFFXOCNSA-N
     RDKit          3D

 38 41  0  0  0  0  0  0  0  0999 V2000
    9.3570    2.3750   -4.8970 C   0  0  0  0  0  0  0  0  0  0  0  0
    8.7250    3.7400   -5.0770 C   0  0  0  0  0  0  0  0  0  0  0  0
    8.0380    4.3320   -4.1430 N   0  0  0  0  0  0  0  0  0  0  0  0
    7.9890    3.5540   -2.9770 O   0  0  0  0  0  0  0  0  0  0  0  0
    7.7530    4.4140   -1.8590 C   0  0  0  0  0  0  0  0  0  0  0  0
    6.2700    4.6470   -1.6760 C   0  0  0  0  0  0  0  0  0  0  0  0
    5.4980    3.8090   -0.8540 C   0  0  0  0  0  0  0  0  0  0  0  0
    4.1230    4.0150   -0.7230 C   0  0  0  0  0  0  0  0  0  0  0  0
    3.5160    5.0500   -1.4230 C   0  0  0  0  0  0  0  0  0  0  0  0
    2.1960    5.2460   -1.2980 F   0  0  0  0  0  0  0  0  0  0  0  0
    4.2560    5.8810   -2.2550 C   0  0  0  0  0  0  0  0  0  0  0  0
    5.6310    5.6790   -2.3850 C   0  0  0  0  0  0  0  0  0  0  0  0
    8.8910    4.4730   -6.4030 C   0  0  1  0  0  0  0  0  0  0  0  0
    9.0020    3.5020   -7.5850 C   0  0  0  0  0  0  0  0  0  0  0  0
    9.7400    4.0800   -8.7690 C   0  0  0  0  0  0  0  0  0  0  0  0
    9.6880    3.4460  -10.0160 C   0  0  0  0  0  0  0  0  0  0  0  0
   10.3580    3.9930  -11.1120 C   0  0  0  0  0  0  0  0  0  0  0  0
   11.0860    5.1780  -10.9880 C   0  0  0  0  0  0  0  0  0  0  0  0
   11.6940    5.5910  -12.1410 O   0  0  0  0  0  0  0  0  0  0  0  0
   12.0010    6.9790  -12.3050 C   0  0  0  0  0  0  0  0  0  0  0  0
   10.7640    7.7910  -12.6900 C   0  0  0  0  0  0  0  0  0  0  0  0
   10.7110    9.1110  -12.0070 C   0  0  0  0  0  0  0  0  0  0  0  0
   10.6700    9.1890  -10.6320 N   0  0  0  0  0  0  0  0  0  0  0  0
   10.6330   10.4860  -10.3800 C   0  0  0  0  0  0  0  0  0  0  0  0
   10.5820   11.1720   -9.0910 C   0  0  0  0  0  0  0  0  0  0  0  0
   10.9820   10.5480   -7.9000 C   0  0  0  0  0  0  0  0  0  0  0  0
   10.9210   11.2300   -6.6810 C   0  0  0  0  0  0  0  0  0  0  0  0
   10.4590   12.5440   -6.6380 C   0  0  0  0  0  0  0  0  0  0  0  0
   10.0570   13.1770   -7.8120 C   0  0  0  0  0  0  0  0  0  0  0  0
   10.1190   12.4950   -9.0290 C   0  0  0  0  0  0  0  0  0  0  0  0
   10.6480   11.2720  -11.5040 O   0  0  0  0  0  0  0  0  0  0  0  0
   10.7000   10.3820  -12.5400 C   0  0  0  0  0  0  0  0  0  0  0  0
   10.7200   10.9410  -13.9020 C   0  0  0  0  0  0  0  0  0  0  0  0
   11.1430    5.8100   -9.7490 C   0  0  0  0  0  0  0  0  0  0  0  0
   10.4750    5.2660   -8.6460 C   0  0  0  0  0  0  0  0  0  0  0  0
    7.7720    5.4510   -6.6460 C   0  0  0  0  0  0  0  0  0  0  0  0
    7.8720    6.6340   -6.9260 O   0  0  0  0  0  0  0  0  0  0  0  0
    6.5510    4.8880   -6.5320 O   0  0  0  0  0  0  0  0  0  0  0  0
  1  2  1  0
  2  3  2  0
  3  4  1  0
  4  5  1  0
  5  6  1  0
  6  7  2  0
  7  8  1  0
  8  9  2  0
  9 10  1  0
  9 11  1  0
 11 12  2  0
  2 13  1  0
 13 14  1  6
 14 15  1  0
 15 16  2  0
 16 17  1  0
 17 18  2  0
 18 19  1  0
 19 20  1  0
 20 21  1  0
 21 22  1  0
 22 23  1  0
 23 24  2  0
 24 25  1  0
 25 26  2  0
 26 27  1  0
 27 28  2  0
 28 29  1  0
 29 30  2  0
 24 31  1  0
 31 32  1  0
 32 33  1  0
 18 34  1  0
 34 35  2  0
 13 36  1  0
 36 37  2  0
 36 38  1  0
 12  6  1  0
 35 15  1  0
 32 22  2  0
 30 25  1  0
M  END
$$$$
