
 OpenBabel08282616593D

 32 35  0  0  1  0  0  0  0  0999 V2000
   99.9150  100.6030  105.5550 C   0  0  0  0  0  0  0  0  0  0  0  0
   99.3400  101.7910  105.8470 N   0  0  0  0  0  0  0  0  0  0  0  0
   98.2350  102.2060  105.1550 C   0  0  0  0  0  0  0  0  0  0  0  0
   97.6750  101.3990  104.1590 C   0  0  0  0  0  0  0  0  0  0  0  0
   98.2350  100.1530  103.8820 C   0  0  0  0  0  0  0  0  0  0  0  0
   99.3560   99.7570  104.5890 C   0  0  0  0  0  0  0  0  0  0  0  0
   99.8920   98.5540  104.3310 F   0  0  0  0  0  0  0  0  0  0  0  0
   96.4880  101.8480  103.4030 C   0  0  0  0  0  0  0  0  0  0  0  0
   95.9400  101.0580  102.6460 O   0  0  0  0  0  0  0  0  0  0  0  0
   96.0330  103.2190  103.6540 C   0  0  0  0  0  0  0  0  0  0  0  0
   96.6280  103.9280  104.6220 C   0  0  0  0  0  0  0  0  0  0  0  0
   97.6690  103.4930  105.4310 N   0  0  0  0  0  0  0  0  0  0  0  0
  101.0480  100.2540  106.2970 N   0  0  0  0  0  0  0  0  0  0  0  0
  102.3360  100.0570  108.1780 C   0  0  1  0  0  0  0  0  0  0  0  0
  103.1950  100.7880  107.1460 C   0  0  0  0  0  0  0  0  0  0  0  0
  100.9210  100.4500  107.7480 C   0  0  0  0  0  0  0  0  0  0  0  0
  102.3520  100.7720  105.8560 C   0  0  0  0  0  0  0  0  0  0  0  0
  102.4770   98.5760  107.9500 N   0  0  0  0  0  4  0  0  0  0  0  0
  101.9370   98.0340  108.6350 H   0  0  0  0  0  0  0  0  0  0  0  0
  102.0580   98.3700  107.0250 H   0  0  0  0  0  0  0  0  0  0  0  0
  103.4490   98.2490  107.9530 H   0  0  0  0  0  0  0  0  0  0  0  0
   98.1350  104.3240  106.4960 C   0  0  0  0  0  0  0  0  0  0  0  0
   97.9560  103.9290  107.8360 C   0  0  0  0  0  0  0  0  0  0  0  0
   98.7710  105.5570  106.2580 C   0  0  0  0  0  0  0  0  0  0  0  0
   98.3960  104.7360  108.8870 C   0  0  0  0  0  0  0  0  0  0  0  0
   99.2180  106.3640  107.3000 C   0  0  0  0  0  0  0  0  0  0  0  0
   99.0260  105.9430  108.6080 C   0  0  0  0  0  0  0  0  0  0  0  0
   99.0000  105.9690  105.0020 F   0  0  0  0  0  0  0  0  0  0  0  0
   99.4620  106.7040  109.6190 F   0  0  0  0  0  0  0  0  0  0  0  0
   94.9210  103.8670  102.8680 C   0  0  0  0  0  0  0  0  0  0  0  0
   95.2860  104.8320  102.1350 O   0  0  0  0  0  0  0  0  0  0  0  0
   93.7930  103.3080  102.9650 O   0  0  0  0  0  0  0  0  0  0  0  0
  1  2  1  0  0  0  0
  1 13  1  0  0  0  0
  3 12  1  0  0  0  0
  3  2  2  0  0  0  0
  4  3  1  0  0  0  0
  5  4  2  0  0  0  0
  5  6  1  0  0  0  0
  6  1  2  0  0  0  0
  7  6  1  0  0  0  0
  8 10  1  0  0  0  0
  8  4  1  0  0  0  0
  9  8  2  0  0  0  0
 10 11  2  0  0  0  0
 11 12  1  0  0  0  0
 12 22  1  0  0  0  0
 13 16  1  0  0  0  0
 14 18  1  6  0  0  0
 15 14  1  0  0  0  0
 16 14  1  0  0  0  0
 17 13  1  0  0  0  0
 17 15  1  0  0  0  0
 18 21  1  0  0  0  0
 18 19  1  0  0  0  0
 20 18  1  0  0  0  0
 22 23  1  0  0  0  0
 23 25  2  0  0  0  0
 24 22  2  0  0  0  0
 24 26  1  0  0  0  0
 26 27  2  0  0  0  0
 27 25  1  0  0  0  0
 27 29  1  0  0  0  0
 28 24  1  0  0  0  0
 30 32  1  0  0  0  0
 30 10  1  0  0  0  0
 31 30  2  0  0  0  0
M  END
>  <minimizedAffinity>
-8.96706295

>  <CNNscore>
0.773973346

>  <CNNaffinity>
7.27391768

$$$$

 OpenBabel08282616593D

 32 35  0  0  1  0  0  0  0  0999 V2000
   98.1120  100.3840  104.0590 C   0  0  0  0  0  0  0  0  0  0  0  0
   98.5790  101.1470  105.0720 N   0  0  0  0  0  0  0  0  0  0  0  0
   99.6930  100.7590  105.7650 C   0  0  0  0  0  0  0  0  0  0  0  0
  100.3740   99.5870  105.4190 C   0  0  0  0  0  0  0  0  0  0  0  0
   99.9260   98.8180  104.3460 C   0  0  0  0  0  0  0  0  0  0  0  0
   98.7930   99.2250  103.6650 C   0  0  0  0  0  0  0  0  0  0  0  0
   98.3640   98.4920  102.6260 F   0  0  0  0  0  0  0  0  0  0  0  0
  101.5710   99.1600  106.1710 C   0  0  0  0  0  0  0  0  0  0  0  0
  102.2240   98.2140  105.7490 O   0  0  0  0  0  0  0  0  0  0  0  0
  101.9080   99.9430  107.3640 C   0  0  0  0  0  0  0  0  0  0  0  0
  101.2020  101.0500  107.6290 C   0  0  0  0  0  0  0  0  0  0  0  0
  100.1450  101.5440  106.8760 N   0  0  0  0  0  0  0  0  0  0  0  0
   96.9620  100.8400  103.4070 N   0  0  0  0  0  0  0  0  0  0  0  0
   94.7980  100.7420  102.6700 C   0  0  1  0  0  0  0  0  0  0  0  0
   95.6560  101.0420  101.4410 C   0  0  0  0  0  0  0  0  0  0  0  0
   95.7800   99.9810  103.5630 C   0  0  0  0  0  0  0  0  0  0  0  0
   97.0790  101.2440  101.9970 C   0  0  0  0  0  0  0  0  0  0  0  0
   94.4830  102.0430  103.3580 N   0  0  0  0  0  4  0  0  0  0  0  0
   93.8860  101.9010  104.1810 H   0  0  0  0  0  0  0  0  0  0  0  0
   95.3800  102.4220  103.7140 H   0  0  0  0  0  0  0  0  0  0  0  0
   94.0510  102.7410  102.7440 H   0  0  0  0  0  0  0  0  0  0  0  0
   99.5510  102.7960  107.2220 C   0  0  0  0  0  0  0  0  0  0  0  0
   98.5100  102.8510  108.1690 C   0  0  0  0  0  0  0  0  0  0  0  0
   99.9640  104.0070  106.6340 C   0  0  0  0  0  0  0  0  0  0  0  0
   97.9130  104.0670  108.5100 C   0  0  0  0  0  0  0  0  0  0  0  0
   99.3780  105.2230  106.9730 C   0  0  0  0  0  0  0  0  0  0  0  0
   98.3560  105.2400  107.9100 C   0  0  0  0  0  0  0  0  0  0  0  0
  100.9740  104.0210  105.7510 F   0  0  0  0  0  0  0  0  0  0  0  0
   97.7920  106.4050  108.2540 F   0  0  0  0  0  0  0  0  0  0  0  0
  103.0190   99.5560  108.3080 C   0  0  0  0  0  0  0  0  0  0  0  0
  102.6410   98.9220  109.3350 O   0  0  0  0  0  0  0  0  0  0  0  0
  104.1860   99.8240  107.9090 O   0  0  0  0  0  0  0  0  0  0  0  0
  1  2  1  0  0  0  0
  2  3  2  0  0  0  0
  3 12  1  0  0  0  0
  4  3  1  0  0  0  0
  4  8  1  0  0  0  0
  5  4  2  0  0  0  0
  6  1  2  0  0  0  0
  6  5  1  0  0  0  0
  7  6  1  0  0  0  0
  8 10  1  0  0  0  0
  9  8  2  0  0  0  0
 10 11  2  0  0  0  0
 10 30  1  0  0  0  0
 12 22  1  0  0  0  0
 12 11  1  0  0  0  0
 13 16  1  0  0  0  0
 13  1  1  0  0  0  0
 14 18  1  1  0  0  0
 14 16  1  0  0  0  0
 15 17  1  0  0  0  0
 15 14  1  0  0  0  0
 17 13  1  0  0  0  0
 18 20  1  0  0  0  0
 18 19  1  0  0  0  0
 21 18  1  0  0  0  0
 22 23  1  0  0  0  0
 23 25  2  0  0  0  0
 24 26  1  0  0  0  0
 24 22  2  0  0  0  0
 26 27  2  0  0  0  0
 27 29  1  0  0  0  0
 27 25  1  0  0  0  0
 28 24  1  0  0  0  0
 30 31  1  0  0  0  0
 32 30  2  0  0  0  0
M  END
>  <minimizedAffinity>
-9.66359329

>  <CNNscore>
0.652118325

>  <CNNaffinity>
7.06560898

$$$$

 OpenBabel08282616593D

 32 35  0  0  1  0  0  0  0  0999 V2000
  100.3420  100.1230  104.6840 C   0  0  0  0  0  0  0  0  0  0  0  0
   99.5730  101.1380  105.1380 N   0  0  0  0  0  0  0  0  0  0  0  0
   98.5070  101.5740  104.4000 C   0  0  0  0  0  0  0  0  0  0  0  0
   98.1850  100.9610  103.1840 C   0  0  0  0  0  0  0  0  0  0  0  0
   98.9450   99.8830  102.7310 C   0  0  0  0  0  0  0  0  0  0  0  0
  100.0230   99.4650  103.4900 C   0  0  0  0  0  0  0  0  0  0  0  0
  100.7500   98.4220  103.0610 F   0  0  0  0  0  0  0  0  0  0  0  0
   97.0420  101.4350  102.3790 C   0  0  0  0  0  0  0  0  0  0  0  0
   96.7020  100.7840  101.4000 O   0  0  0  0  0  0  0  0  0  0  0  0
   96.3700  102.6500  102.8500 C   0  0  0  0  0  0  0  0  0  0  0  0
   96.7430  103.1790  104.0220 C   0  0  0  0  0  0  0  0  0  0  0  0
   97.7360  102.6900  104.8610 N   0  0  0  0  0  0  0  0  0  0  0  0
  101.4190   99.7420  105.4900 N   0  0  0  0  0  0  0  0  0  0  0  0
  102.4400   98.8250  107.3210 C   0  0  1  0  0  0  0  0  0  0  0  0
  102.9960  100.2430  107.1870 C   0  0  0  0  0  0  0  0  0  0  0  0
  101.0560   98.9660  106.6830 C   0  0  0  0  0  0  0  0  0  0  0  0
  102.4000  100.7720  105.8680 C   0  0  0  0  0  0  0  0  0  0  0  0
  103.2480   97.9130  106.4390 N   0  0  0  0  0  4  0  0  0  0  0  0
  102.9310   96.9390  106.5100 H   0  0  0  0  0  0  0  0  0  0  0  0
  103.0710   98.2030  105.4590 H   0  0  0  0  0  0  0  0  0  0  0  0
  104.2570   97.9520  106.6170 H   0  0  0  0  0  0  0  0  0  0  0  0
   97.9540  103.3000  106.1340 C   0  0  0  0  0  0  0  0  0  0  0  0
   97.3630  102.7580  107.2920 C   0  0  0  0  0  0  0  0  0  0  0  0
   98.7430  104.4560  106.2830 C   0  0  0  0  0  0  0  0  0  0  0  0
   97.5580  103.3490  108.5420 C   0  0  0  0  0  0  0  0  0  0  0  0
   98.9470  105.0480  107.5270 C   0  0  0  0  0  0  0  0  0  0  0  0
   98.3510  104.4860  108.6460 C   0  0  0  0  0  0  0  0  0  0  0  0
   99.3590  104.9970  105.2220 F   0  0  0  0  0  0  0  0  0  0  0  0
   98.5490  105.0390  109.8490 F   0  0  0  0  0  0  0  0  0  0  0  0
   95.2740  103.3320  102.0690 C   0  0  0  0  0  0  0  0  0  0  0  0
   94.8770  104.4270  102.5640 O   0  0  0  0  0  0  0  0  0  0  0  0
   94.9630  102.7790  100.9780 O   0  0  0  0  0  0  0  0  0  0  0  0
  1  2  1  0  0  0  0
  1 13  1  0  0  0  0
  3 12  1  0  0  0  0
  3  2  2  0  0  0  0
  4  3  1  0  0  0  0
  5  4  2  0  0  0  0
  5  6  1  0  0  0  0
  6  1  2  0  0  0  0
  7  6  1  0  0  0  0
  8 10  1  0  0  0  0
  8  4  1  0  0  0  0
  9  8  2  0  0  0  0
 10 11  2  0  0  0  0
 11 12  1  0  0  0  0
 12 22  1  0  0  0  0
 13 17  1  0  0  0  0
 13 16  1  0  0  0  0
 14 18  1  6  0  0  0
 15 14  1  0  0  0  0
 16 14  1  0  0  0  0
 17 15  1  0  0  0  0
 18 19  1  0  0  0  0
 18 21  1  0  0  0  0
 20 18  1  0  0  0  0
 22 24  2  0  0  0  0
 22 23  1  0  0  0  0
 23 25  2  0  0  0  0
 24 26  1  0  0  0  0
 25 27  1  0  0  0  0
 26 27  2  0  0  0  0
 27 29  1  0  0  0  0
 28 24  1  0  0  0  0
 30 31  1  0  0  0  0
 30 10  1  0  0  0  0
 32 30  2  0  0  0  0
M  END
>  <minimizedAffinity>
-9.07236385

>  <CNNscore>
0.55212599

>  <CNNaffinity>
6.95839262

$$$$

 OpenBabel08282616593D

 32 35  0  0  1  0  0  0  0  0999 V2000
   97.9210  100.2720  104.1640 C   0  0  0  0  0  0  0  0  0  0  0  0
   97.0810  101.2290  103.7130 N   0  0  0  0  0  0  0  0  0  0  0  0
   95.7670  100.9310  103.4730 C   0  0  0  0  0  0  0  0  0  0  0  0
   95.2750   99.6440  103.7140 C   0  0  0  0  0  0  0  0  0  0  0  0
   96.1240   98.6620  104.2220 C   0  0  0  0  0  0  0  0  0  0  0  0
   97.4500   98.9840  104.4500 C   0  0  0  0  0  0  0  0  0  0  0  0
   98.2680   98.0440  104.9470 F   0  0  0  0  0  0  0  0  0  0  0  0
   93.8600   99.3150  103.4460 C   0  0  0  0  0  0  0  0  0  0  0  0
   93.4310   98.2270  103.8060 O   0  0  0  0  0  0  0  0  0  0  0  0
   93.0590  100.3550  102.7920 C   0  0  0  0  0  0  0  0  0  0  0  0
   93.6090  101.5600  102.5910 C   0  0  0  0  0  0  0  0  0  0  0  0
   94.8990  101.9380  102.9380 N   0  0  0  0  0  0  0  0  0  0  0  0
   99.2510  100.6510  104.3740 N   0  0  0  0  0  0  0  0  0  0  0  0
  100.9750  101.7430  105.4090 C   0  0  1  0  0  0  0  0  0  0  0  0
  101.0710  102.1000  103.9250 C   0  0  0  0  0  0  0  0  0  0  0  0
   99.4780  101.4710  105.5720 C   0  0  0  0  0  0  0  0  0  0  0  0
   99.9910  101.2360  103.2450 C   0  0  0  0  0  0  0  0  0  0  0  0
  101.6940  100.4400  105.6310 N   0  0  0  0  0  4  0  0  0  0  0  0
  101.6800  100.1640  106.6200 H   0  0  0  0  0  0  0  0  0  0  0  0
  101.1630   99.7100  105.1210 H   0  0  0  0  0  0  0  0  0  0  0  0
  102.6620  100.4390  105.2940 H   0  0  0  0  0  0  0  0  0  0  0  0
   95.3150  103.2930  102.7580 C   0  0  0  0  0  0  0  0  0  0  0  0
   95.1870  103.9130  101.5000 C   0  0  0  0  0  0  0  0  0  0  0  0
   95.8720  104.0490  103.8060 C   0  0  0  0  0  0  0  0  0  0  0  0
   95.5990  105.2330  101.3050 C   0  0  0  0  0  0  0  0  0  0  0  0
   96.2790  105.3680  103.6220 C   0  0  0  0  0  0  0  0  0  0  0  0
   96.1370  105.9470  102.3700 C   0  0  0  0  0  0  0  0  0  0  0  0
   95.9860  103.5230  105.0350 F   0  0  0  0  0  0  0  0  0  0  0  0
   96.5140  107.2180  102.1820 F   0  0  0  0  0  0  0  0  0  0  0  0
   91.6400  100.1260  102.3350 C   0  0  0  0  0  0  0  0  0  0  0  0
   91.5340   99.5760  101.2010 O   0  0  0  0  0  0  0  0  0  0  0  0
   90.7470  100.4200  103.1770 O   0  0  0  0  0  0  0  0  0  0  0  0
  1 13  1  0  0  0  0
  1  6  1  0  0  0  0
  2  1  2  0  0  0  0
  3  2  1  0  0  0  0
  3  4  2  0  0  0  0
  4  5  1  0  0  0  0
  5  6  2  0  0  0  0
  6  7  1  0  0  0  0
  8  4  1  0  0  0  0
  8  9  2  0  0  0  0
 10  8  1  0  0  0  0
 11 10  2  0  0  0  0
 11 12  1  0  0  0  0
 12  3  1  0  0  0  0
 13 16  1  0  0  0  0
 14 16  1  0  0  0  0
 14 18  1  6  0  0  0
 15 14  1  0  0  0  0
 17 15  1  0  0  0  0
 17 13  1  0  0  0  0
 18 19  1  0  0  0  0
 20 18  1  0  0  0  0
 21 18  1  0  0  0  0
 22 12  1  0  0  0  0
 22 24  1  0  0  0  0
 23 22  2  0  0  0  0
 24 28  1  0  0  0  0
 25 23  1  0  0  0  0
 25 27  2  0  0  0  0
 26 24  2  0  0  0  0
 27 26  1  0  0  0  0
 29 27  1  0  0  0  0
 30 10  1  0  0  0  0
 30 32  1  0  0  0  0
 31 30  2  0  0  0  0
M  END
>  <minimizedAffinity>
-5.0547533

>  <CNNscore>
0.533282757

>  <CNNaffinity>
6.4985404

$$$$

 OpenBabel08282616593D

 32 35  0  0  1  0  0  0  0  0999 V2000
  100.0730  100.8370  105.3400 C   0  0  0  0  0  0  0  0  0  0  0  0
   99.3690  101.9850  105.4530 N   0  0  0  0  0  0  0  0  0  0  0  0
   98.2260  102.1640  104.7240 C   0  0  0  0  0  0  0  0  0  0  0  0
   97.7590  101.1540  103.8760 C   0  0  0  0  0  0  0  0  0  0  0  0
   98.4530   99.9490  103.7870 C   0  0  0  0  0  0  0  0  0  0  0  0
   99.6120   99.7940  104.5270 C   0  0  0  0  0  0  0  0  0  0  0  0
  100.2770   98.6310  104.4510 F   0  0  0  0  0  0  0  0  0  0  0  0
   96.5300  101.3470  103.0790 C   0  0  0  0  0  0  0  0  0  0  0  0
   96.0730  100.3920  102.4630 O   0  0  0  0  0  0  0  0  0  0  0  0
   95.9260  102.6820  103.1210 C   0  0  0  0  0  0  0  0  0  0  0  0
   96.4380  103.5950  103.9570 C   0  0  0  0  0  0  0  0  0  0  0  0
   97.5210  103.4080  104.8060 N   0  0  0  0  0  0  0  0  0  0  0  0
  101.2370  100.7350  106.1080 N   0  0  0  0  0  0  0  0  0  0  0  0
  102.4680  100.6160  108.0340 C   0  0  1  0  0  0  0  0  0  0  0  0
  103.0700  101.7550  107.2110 C   0  0  0  0  0  0  0  0  0  0  0  0
  101.0140  100.6150  107.5560 C   0  0  0  0  0  0  0  0  0  0  0  0
  102.3140  101.7080  105.8680 C   0  0  0  0  0  0  0  0  0  0  0  0
  103.0890   99.3230  107.5820 N   0  0  0  0  0  4  0  0  0  0  0  0
  102.7360   98.5240  108.1220 H   0  0  0  0  0  0  0  0  0  0  0  0
  102.7850   99.1660  106.6030 H   0  0  0  0  0  0  0  0  0  0  0  0
  104.1140   99.3240  107.6120 H   0  0  0  0  0  0  0  0  0  0  0  0
   97.8920  104.4410  105.7210 C   0  0  0  0  0  0  0  0  0  0  0  0
   98.7050  105.5090  105.2950 C   0  0  0  0  0  0  0  0  0  0  0  0
   97.4780  104.4310  107.0660 C   0  0  0  0  0  0  0  0  0  0  0  0
   99.0850  106.5200  106.1800 C   0  0  0  0  0  0  0  0  0  0  0  0
   97.8470  105.4390  107.9530 C   0  0  0  0  0  0  0  0  0  0  0  0
   98.6480  106.4760  107.4990 C   0  0  0  0  0  0  0  0  0  0  0  0
   96.6740  103.4590  107.5210 F   0  0  0  0  0  0  0  0  0  0  0  0
   99.0000  107.4570  108.3390 F   0  0  0  0  0  0  0  0  0  0  0  0
   94.7490  103.0730  102.2620 C   0  0  0  0  0  0  0  0  0  0  0  0
   94.9180  102.8900  101.0220 O   0  0  0  0  0  0  0  0  0  0  0  0
   93.7180  103.4380  102.8920 O   0  0  0  0  0  0  0  0  0  0  0  0
  1  2  1  0  0  0  0
  1 13  1  0  0  0  0
  3 12  1  0  0  0  0
  3  2  2  0  0  0  0
  4  3  1  0  0  0  0
  5  4  2  0  0  0  0
  5  6  1  0  0  0  0
  6  1  2  0  0  0  0
  7  6  1  0  0  0  0
  8 10  1  0  0  0  0
  8  4  1  0  0  0  0
  9  8  2  0  0  0  0
 10 11  2  0  0  0  0
 11 12  1  0  0  0  0
 12 22  1  0  0  0  0
 13 16  1  0  0  0  0
 14 18  1  6  0  0  0
 15 14  1  0  0  0  0
 16 14  1  0  0  0  0
 17 13  1  0  0  0  0
 17 15  1  0  0  0  0
 18 21  1  0  0  0  0
 18 19  1  0  0  0  0
 20 18  1  0  0  0  0
 22 24  1  0  0  0  0
 23 22  2  0  0  0  0
 23 25  1  0  0  0  0
 24 28  1  0  0  0  0
 24 26  2  0  0  0  0
 25 27  2  0  0  0  0
 27 26  1  0  0  0  0
 27 29  1  0  0  0  0
 30 32  1  0  0  0  0
 30 10  1  0  0  0  0
 31 30  2  0  0  0  0
M  END
>  <minimizedAffinity>
-9.17651939

>  <CNNscore>
0.532517076

>  <CNNaffinity>
6.9927392

$$$$

 OpenBabel08282616593D

 32 35  0  0  1  0  0  0  0  0999 V2000
   97.7460  101.3460  103.4300 C   0  0  0  0  0  0  0  0  0  0  0  0
   98.3070  101.8410  104.5550 N   0  0  0  0  0  0  0  0  0  0  0  0
   99.3510  101.1840  105.1480 C   0  0  0  0  0  0  0  0  0  0  0  0
   99.8640  100.0110  104.5850 C   0  0  0  0  0  0  0  0  0  0  0  0
   99.3210   99.5170  103.4000 C   0  0  0  0  0  0  0  0  0  0  0  0
   98.2610  100.1940  102.8230 C   0  0  0  0  0  0  0  0  0  0  0  0
   97.7430   99.7270  101.6770 F   0  0  0  0  0  0  0  0  0  0  0  0
  100.9830   99.2930  105.2270 C   0  0  0  0  0  0  0  0  0  0  0  0
  101.5010   98.3570  104.6320 O   0  0  0  0  0  0  0  0  0  0  0  0
  101.4170   99.7940  106.5360 C   0  0  0  0  0  0  0  0  0  0  0  0
  100.8700  100.9220  107.0070 C   0  0  0  0  0  0  0  0  0  0  0  0
   99.8980  101.6860  106.3730 N   0  0  0  0  0  0  0  0  0  0  0  0
   96.6770  102.0680  102.8910 N   0  0  0  0  0  0  0  0  0  0  0  0
   94.5850  102.9950  102.8580 C   0  0  1  0  0  0  0  0  0  0  0  0
   94.6980  102.1480  101.5900 C   0  0  0  0  0  0  0  0  0  0  0  0
   95.5460  102.2740  103.8060 C   0  0  0  0  0  0  0  0  0  0  0  0
   96.1600  101.6620  101.5740 C   0  0  0  0  0  0  0  0  0  0  0  0
   95.1690  104.3530  102.5760 N   0  0  0  0  0  4  0  0  0  0  0  0
   95.0960  104.9720  103.3920 H   0  0  0  0  0  0  0  0  0  0  0  0
   96.1830  104.2170  102.4060 H   0  0  0  0  0  0  0  0  0  0  0  0
   94.7570  104.8190  101.7610 H   0  0  0  0  0  0  0  0  0  0  0  0
   99.4830  102.9260  106.9490 C   0  0  0  0  0  0  0  0  0  0  0  0
   98.5930  102.9390  108.0400 C   0  0  0  0  0  0  0  0  0  0  0  0
   99.9270  104.1650  106.4520 C   0  0  0  0  0  0  0  0  0  0  0  0
   98.1700  104.1430  108.6060 C   0  0  0  0  0  0  0  0  0  0  0  0
   99.5150  105.3700  107.0160 C   0  0  0  0  0  0  0  0  0  0  0  0
   98.6380  105.3460  108.0900 C   0  0  0  0  0  0  0  0  0  0  0  0
  100.8020  104.2140  105.4370 F   0  0  0  0  0  0  0  0  0  0  0  0
   98.2430  106.4970  108.6480 F   0  0  0  0  0  0  0  0  0  0  0  0
  102.4550   99.0920  107.3760 C   0  0  0  0  0  0  0  0  0  0  0  0
  102.1840   97.8870  107.6510 O   0  0  0  0  0  0  0  0  0  0  0  0
  103.5000   99.7590  107.6120 O   0  0  0  0  0  0  0  0  0  0  0  0
  1  2  1  0  0  0  0
  2  3  2  0  0  0  0
  3 12  1  0  0  0  0
  4  3  1  0  0  0  0
  4  8  1  0  0  0  0
  5  4  2  0  0  0  0
  6  5  1  0  0  0  0
  6  1  2  0  0  0  0
  7  6  1  0  0  0  0
  8 10  1  0  0  0  0
  9  8  2  0  0  0  0
 10 11  2  0  0  0  0
 10 30  1  0  0  0  0
 12 22  1  0  0  0  0
 12 11  1  0  0  0  0
 13  1  1  0  0  0  0
 13 16  1  0  0  0  0
 14 18  1  6  0  0  0
 14 16  1  0  0  0  0
 15 14  1  0  0  0  0
 17 15  1  0  0  0  0
 17 13  1  0  0  0  0
 18 19  1  0  0  0  0
 20 18  1  0  0  0  0
 21 18  1  0  0  0  0
 22 23  1  0  0  0  0
 23 25  2  0  0  0  0
 24 22  2  0  0  0  0
 24 26  1  0  0  0  0
 26 27  2  0  0  0  0
 27 25  1  0  0  0  0
 27 29  1  0  0  0  0
 28 24  1  0  0  0  0
 30 32  2  0  0  0  0
 30 31  1  0  0  0  0
M  END
>  <minimizedAffinity>
-9.66186333

>  <CNNscore>
0.478867084

>  <CNNaffinity>
6.61469221

$$$$

 OpenBabel08282616593D

 32 35  0  0  1  0  0  0  0  0999 V2000
  100.5350  100.4790  105.1150 C   0  0  0  0  0  0  0  0  0  0  0  0
   99.6090  101.4590  105.2190 N   0  0  0  0  0  0  0  0  0  0  0  0
   98.5420  101.4860  104.3640 C   0  0  0  0  0  0  0  0  0  0  0  0
   98.3820  100.4910  103.3930 C   0  0  0  0  0  0  0  0  0  0  0  0
   99.3080   99.4520  103.3090 C   0  0  0  0  0  0  0  0  0  0  0  0
  100.3840   99.4500  104.1790 C   0  0  0  0  0  0  0  0  0  0  0  0
  101.2720   98.4460  104.1060 F   0  0  0  0  0  0  0  0  0  0  0  0
   97.2370  100.5230  102.4620 C   0  0  0  0  0  0  0  0  0  0  0  0
   97.0500   99.5610  101.7270 O   0  0  0  0  0  0  0  0  0  0  0  0
   96.3780  101.7100  102.5210 C   0  0  0  0  0  0  0  0  0  0  0  0
   96.6020  102.6200  103.4780 C   0  0  0  0  0  0  0  0  0  0  0  0
   97.5990  102.5620  104.4430 N   0  0  0  0  0  0  0  0  0  0  0  0
  101.6030  100.5270  106.0170 N   0  0  0  0  0  0  0  0  0  0  0  0
  102.6100  100.4660  108.0710 C   0  0  1  0  0  0  0  0  0  0  0  0
  103.0650  101.7670  107.4100 C   0  0  0  0  0  0  0  0  0  0  0  0
  101.2480  100.2370  107.4130 C   0  0  0  0  0  0  0  0  0  0  0  0
  102.4880  101.7020  105.9820 C   0  0  0  0  0  0  0  0  0  0  0  0
  103.5190   99.3580  107.6150 N   0  0  0  0  0  4  0  0  0  0  0  0
  103.2720   98.4610  108.0500 H   0  0  0  0  0  0  0  0  0  0  0  0
  103.3630   99.2370  106.5970 H   0  0  0  0  0  0  0  0  0  0  0  0
  104.5140   99.5470  107.7760 H   0  0  0  0  0  0  0  0  0  0  0  0
   97.6520  103.5550  105.4680 C   0  0  0  0  0  0  0  0  0  0  0  0
   98.2140  104.8190  105.2040 C   0  0  0  0  0  0  0  0  0  0  0  0
   97.1670  103.3150  106.7680 C   0  0  0  0  0  0  0  0  0  0  0  0
   98.2830  105.7970  106.1980 C   0  0  0  0  0  0  0  0  0  0  0  0
   97.2270  104.2860  107.7630 C   0  0  0  0  0  0  0  0  0  0  0  0
   97.7850  105.5210  107.4670 C   0  0  0  0  0  0  0  0  0  0  0  0
   96.5900  102.1420  107.0690 F   0  0  0  0  0  0  0  0  0  0  0  0
   97.8380  106.4680  108.4120 F   0  0  0  0  0  0  0  0  0  0  0  0
   95.2500  101.9510  101.5490 C   0  0  0  0  0  0  0  0  0  0  0  0
   95.2390  103.1040  101.0300 O   0  0  0  0  0  0  0  0  0  0  0  0
   94.5240  100.9480  101.3040 O   0  0  0  0  0  0  0  0  0  0  0  0
  1  2  1  0  0  0  0
  1 13  1  0  0  0  0
  3 12  1  0  0  0  0
  3  2  2  0  0  0  0
  4  3  1  0  0  0  0
  5  4  2  0  0  0  0
  5  6  1  0  0  0  0
  6  1  2  0  0  0  0
  7  6  1  0  0  0  0
  8 10  1  0  0  0  0
  8  4  1  0  0  0  0
  9  8  2  0  0  0  0
 10 11  2  0  0  0  0
 11 12  1  0  0  0  0
 12 22  1  0  0  0  0
 13 16  1  0  0  0  0
 14 18  1  6  0  0  0
 15 14  1  0  0  0  0
 16 14  1  0  0  0  0
 17 13  1  0  0  0  0
 17 15  1  0  0  0  0
 18 21  1  0  0  0  0
 18 19  1  0  0  0  0
 20 18  1  0  0  0  0
 22 24  1  0  0  0  0
 23 22  2  0  0  0  0
 23 25  1  0  0  0  0
 24 28  1  0  0  0  0
 24 26  2  0  0  0  0
 25 27  2  0  0  0  0
 27 26  1  0  0  0  0
 27 29  1  0  0  0  0
 30 10  1  0  0  0  0
 31 30  2  0  0  0  0
 32 30  1  0  0  0  0
M  END
>  <minimizedAffinity>
-8.99336433

>  <CNNscore>
0.443577379

>  <CNNaffinity>
6.98103333

$$$$

 OpenBabel08282616593D

 32 35  0  0  1  0  0  0  0  0999 V2000
   97.5730  101.5020  103.3860 C   0  0  0  0  0  0  0  0  0  0  0  0
   98.1980  102.0610  104.4480 N   0  0  0  0  0  0  0  0  0  0  0  0
   99.2330  101.4060  105.0570 C   0  0  0  0  0  0  0  0  0  0  0  0
   99.6730  100.1680  104.5750 C   0  0  0  0  0  0  0  0  0  0  0  0
   99.0650   99.6060  103.4540 C   0  0  0  0  0  0  0  0  0  0  0  0
   98.0150  100.2820  102.8590 C   0  0  0  0  0  0  0  0  0  0  0  0
   97.4330   99.7480  101.7740 F   0  0  0  0  0  0  0  0  0  0  0  0
  100.7840   99.4530  105.2360 C   0  0  0  0  0  0  0  0  0  0  0  0
  101.2370   98.4490  104.7020 O   0  0  0  0  0  0  0  0  0  0  0  0
  101.2870  100.0370  106.4830 C   0  0  0  0  0  0  0  0  0  0  0  0
  100.8080  101.2240  106.8780 C   0  0  0  0  0  0  0  0  0  0  0  0
   99.8480  101.9780  106.2170 N   0  0  0  0  0  0  0  0  0  0  0  0
   96.5170  102.2270  102.8270 N   0  0  0  0  0  0  0  0  0  0  0  0
   94.4420  103.1910  102.7660 C   0  0  1  0  0  0  0  0  0  0  0  0
   94.5390  102.3050  101.5240 C   0  0  0  0  0  0  0  0  0  0  0  0
   95.3900  102.4800  103.7350 C   0  0  0  0  0  0  0  0  0  0  0  0
   95.9930  101.7920  101.5220 C   0  0  0  0  0  0  0  0  0  0  0  0
   95.0510  104.5290  102.4450 N   0  0  0  0  0  4  0  0  0  0  0  0
   94.9900  105.1730  103.2420 H   0  0  0  0  0  0  0  0  0  0  0  0
   96.0620  104.3700  102.2790 H   0  0  0  0  0  0  0  0  0  0  0  0
   94.6470  104.9780  101.6160 H   0  0  0  0  0  0  0  0  0  0  0  0
   99.5090  103.2790  106.7030 C   0  0  0  0  0  0  0  0  0  0  0  0
   99.9870  104.4290  106.0460 C   0  0  0  0  0  0  0  0  0  0  0  0
   98.7080  103.4640  107.8450 C   0  0  0  0  0  0  0  0  0  0  0  0
   99.6730  105.7060  106.5150 C   0  0  0  0  0  0  0  0  0  0  0  0
   98.3850  104.7340  108.3160 C   0  0  0  0  0  0  0  0  0  0  0  0
   98.8730  105.8450  107.6430 C   0  0  0  0  0  0  0  0  0  0  0  0
   98.1950  102.4060  108.4920 F   0  0  0  0  0  0  0  0  0  0  0  0
   98.5600  107.0720  108.0780 F   0  0  0  0  0  0  0  0  0  0  0  0
  102.3250   99.3580  107.3420 C   0  0  0  0  0  0  0  0  0  0  0  0
  103.1570  100.1430  107.8830 O   0  0  0  0  0  0  0  0  0  0  0  0
  102.1730   98.1140  107.4910 O   0  0  0  0  0  0  0  0  0  0  0  0
  1  2  1  0  0  0  0
  2  3  2  0  0  0  0
  3 12  1  0  0  0  0
  4  3  1  0  0  0  0
  4  8  1  0  0  0  0
  5  4  2  0  0  0  0
  6  1  2  0  0  0  0
  6  5  1  0  0  0  0
  7  6  1  0  0  0  0
  8 10  1  0  0  0  0
  9  8  2  0  0  0  0
 10 11  2  0  0  0  0
 10 30  1  0  0  0  0
 12 22  1  0  0  0  0
 12 11  1  0  0  0  0
 13  1  1  0  0  0  0
 13 16  1  0  0  0  0
 14 18  1  6  0  0  0
 14 16  1  0  0  0  0
 15 14  1  0  0  0  0
 17 15  1  0  0  0  0
 17 13  1  0  0  0  0
 18 19  1  0  0  0  0
 20 18  1  0  0  0  0
 21 18  1  0  0  0  0
 22 24  1  0  0  0  0
 23 25  1  0  0  0  0
 23 22  2  0  0  0  0
 24 26  2  0  0  0  0
 24 28  1  0  0  0  0
 25 27  2  0  0  0  0
 27 29  1  0  0  0  0
 27 26  1  0  0  0  0
 30 32  2  0  0  0  0
 30 31  1  0  0  0  0
M  END
>  <minimizedAffinity>
-9.51287842

>  <CNNscore>
0.441471726

>  <CNNaffinity>
6.59843063

$$$$

 OpenBabel08282616593D

 32 35  0  0  1  0  0  0  0  0999 V2000
   97.3950   99.4790  103.9790 C   0  0  0  0  0  0  0  0  0  0  0  0
   97.6910  100.5210  104.7870 N   0  0  0  0  0  0  0  0  0  0  0  0
   98.9120  100.5860  105.4020 C   0  0  0  0  0  0  0  0  0  0  0  0
   99.8730   99.5940  105.1820 C   0  0  0  0  0  0  0  0  0  0  0  0
   99.5920   98.5390  104.3150 C   0  0  0  0  0  0  0  0  0  0  0  0
   98.3480   98.4890  103.7110 C   0  0  0  0  0  0  0  0  0  0  0  0
   98.0780   97.4810  102.8680 F   0  0  0  0  0  0  0  0  0  0  0  0
  101.1870   99.6550  105.8520 C   0  0  0  0  0  0  0  0  0  0  0  0
  102.0520   98.8530  105.5240 O   0  0  0  0  0  0  0  0  0  0  0  0
  101.3650  100.7160  106.8480 C   0  0  0  0  0  0  0  0  0  0  0  0
  100.3930  101.6240  107.0020 C   0  0  0  0  0  0  0  0  0  0  0  0
   99.1940  101.6640  106.3030 N   0  0  0  0  0  0  0  0  0  0  0  0
   96.1230   99.4780  103.3970 N   0  0  0  0  0  0  0  0  0  0  0  0
   94.5490   99.9710  101.8110 C   0  0  1  0  0  0  0  0  0  0  0  0
   93.9750  100.4470  103.1460 C   0  0  0  0  0  0  0  0  0  0  0  0
   96.0550  100.0790  102.0580 C   0  0  0  0  0  0  0  0  0  0  0  0
   94.9930   99.9680  104.2000 C   0  0  0  0  0  0  0  0  0  0  0  0
   94.2250   98.5110  101.6490 N   0  0  0  0  0  4  0  0  0  0  0  0
   94.5690   98.1450  100.7530 H   0  0  0  0  0  0  0  0  0  0  0  0
   94.7460   98.0010  102.3860 H   0  0  0  0  0  0  0  0  0  0  0  0
   93.2270   98.2960  101.7400 H   0  0  0  0  0  0  0  0  0  0  0  0
   98.2940  102.7560  106.4990 C   0  0  0  0  0  0  0  0  0  0  0  0
   97.3030  102.6900  107.4980 C   0  0  0  0  0  0  0  0  0  0  0  0
   98.3490  103.9200  105.7090 C   0  0  0  0  0  0  0  0  0  0  0  0
   96.4100  103.7450  107.6930 C   0  0  0  0  0  0  0  0  0  0  0  0
   97.4660  104.9790  105.9020 C   0  0  0  0  0  0  0  0  0  0  0  0
   96.5030  104.8800  106.8950 C   0  0  0  0  0  0  0  0  0  0  0  0
   99.2940  104.0540  104.7660 F   0  0  0  0  0  0  0  0  0  0  0  0
   95.6560  105.8960  107.0990 F   0  0  0  0  0  0  0  0  0  0  0  0
  102.5990  100.8290  107.7090 C   0  0  0  0  0  0  0  0  0  0  0  0
  102.7340   99.9040  108.5610 O   0  0  0  0  0  0  0  0  0  0  0  0
  103.3840  101.7700  107.4070 O   0  0  0  0  0  0  0  0  0  0  0  0
  1  2  1  0  0  0  0
  2  3  2  0  0  0  0
  3 12  1  0  0  0  0
  4  3  1  0  0  0  0
  4  8  1  0  0  0  0
  5  4  2  0  0  0  0
  6  1  2  0  0  0  0
  6  5  1  0  0  0  0
  7  6  1  0  0  0  0
  8 10  1  0  0  0  0
  9  8  2  0  0  0  0
 10 11  2  0  0  0  0
 10 30  1  0  0  0  0
 12 22  1  0  0  0  0
 12 11  1  0  0  0  0
 13  1  1  0  0  0  0
 13 17  1  0  0  0  0
 14 18  1  1  0  0  0
 14 16  1  0  0  0  0
 14 15  1  0  0  0  0
 15 17  1  0  0  0  0
 16 13  1  0  0  0  0
 18 21  1  0  0  0  0
 18 20  1  0  0  0  0
 19 18  1  0  0  0  0
 22 23  1  0  0  0  0
 23 25  2  0  0  0  0
 24 26  1  0  0  0  0
 24 22  2  0  0  0  0
 26 27  2  0  0  0  0
 27 29  1  0  0  0  0
 27 25  1  0  0  0  0
 28 24  1  0  0  0  0
 30 31  1  0  0  0  0
 32 30  2  0  0  0  0
M  END
>  <minimizedAffinity>
-8.59543705

>  <CNNscore>
0.434647083

>  <CNNaffinity>
6.29489088

$$$$
