
 OpenBabel08282608113D

 26 29  0  0  0  0  0  0  0  0999 V2000
   95.7470  102.8130  104.0200 C   0  0  0  0  0  0  0  0  0  0  0  0
   95.9080  103.6230  105.1920 C   0  0  0  0  0  0  0  0  0  0  0  0
   95.1350  104.5960  105.5150 O   0  0  0  0  0  0  0  0  0  0  0  0
   97.0220  103.2390  105.9860 C   0  0  0  0  0  0  0  0  0  0  0  0
   97.8900  102.2110  105.7210 N   0  0  0  0  0  0  0  0  0  0  0  0
   97.7110  101.4920  104.6090 C   0  0  0  0  0  0  0  0  0  0  0  0
   98.6120  100.4520  104.3230 C   0  0  0  0  0  0  0  0  0  0  0  0
   98.4680   99.6380  103.1810 C   0  0  0  0  0  0  0  0  0  0  0  0
   97.4160   99.8690  102.3080 C   0  0  0  0  0  0  0  0  0  0  0  0
   96.5300  100.9110  102.5740 C   0  0  0  0  0  0  0  0  0  0  0  0
   96.6510  101.7400  103.7190 C   0  0  0  0  0  0  0  0  0  0  0  0
   99.4320   98.5050  102.9760 C   0  0  0  0  0  0  0  0  0  0  0  0
  100.8700   98.9490  103.2440 C   0  0  0  0  0  0  0  0  0  0  0  0
  101.0420   99.8370  104.4840 C   0  0  0  0  0  0  0  0  0  0  0  0
   99.7520  100.1160  105.2590 C   0  0  0  0  0  0  0  0  0  0  0  0
   94.6130  103.0330  103.0230 C   0  0  0  0  0  0  0  0  0  0  0  0
   93.7370  102.1030  102.9050 O   0  0  0  0  0  0  0  0  0  0  0  0
   94.7110  104.0240  102.2160 O   0  0  0  0  0  0  0  0  0  0  0  0
   97.3500  103.9860  107.2690 C   0  0  0  0  0  0  0  0  0  0  0  0
   98.1740  105.2460  107.0630 C   0  0  0  0  0  0  0  0  0  0  0  0
   98.7360  105.5180  105.8070 C   0  0  0  0  0  0  0  0  0  0  0  0
   98.4010  106.1400  108.1200 C   0  0  0  0  0  0  0  0  0  0  0  0
   99.4990  106.6690  105.6030 C   0  0  0  0  0  0  0  0  0  0  0  0
   99.1610  107.2940  107.9170 C   0  0  0  0  0  0  0  0  0  0  0  0
   99.7040  107.5540  106.6590 C   0  0  0  0  0  0  0  0  0  0  0  0
  100.6370  108.9820  106.4130 Cl  0  0  0  0  0  0  0  0  0  0  0  0
  1  2  1  0  0  0  0
  2  3  1  0  0  0  0
  2  4  2  0  0  0  0
  4 19  1  0  0  0  0
  5  4  1  0  0  0  0
  6  5  2  0  0  0  0
  7  6  1  0  0  0  0
  7 15  1  0  0  0  0
  8  7  2  0  0  0  0
  9 10  2  0  0  0  0
  9  8  1  0  0  0  0
 10 11  1  0  0  0  0
 11  1  2  0  0  0  0
 11  6  1  0  0  0  0
 12  8  1  0  0  0  0
 12 13  1  0  0  0  0
 13 14  1  0  0  0  0
 14 15  1  0  0  0  0
 16  1  1  0  0  0  0
 17 16  1  0  0  0  0
 18 16  2  0  0  0  0
 20 19  1  0  0  0  0
 20 22  1  0  0  0  0
 21 20  2  0  0  0  0
 23 21  1  0  0  0  0
 23 25  2  0  0  0  0
 24 22  2  0  0  0  0
 25 24  1  0  0  0  0
 26 25  1  0  0  0  0
M  END
>  <minimizedAffinity>
-8.95580864

>  <CNNscore>
0.749780238

>  <CNNaffinity>
6.72723722

$$$$

 OpenBabel08282608113D

 26 29  0  0  0  0  0  0  0  0999 V2000
   95.2250  101.2590  103.1320 C   0  0  0  0  0  0  0  0  0  0  0  0
   95.0540  102.6730  103.2900 C   0  0  0  0  0  0  0  0  0  0  0  0
   94.0020  103.3220  102.9440 O   0  0  0  0  0  0  0  0  0  0  0  0
   96.1790  103.3070  103.8830 C   0  0  0  0  0  0  0  0  0  0  0  0
   97.3360  102.6930  104.2880 N   0  0  0  0  0  0  0  0  0  0  0  0
   97.4580  101.3740  104.1080 C   0  0  0  0  0  0  0  0  0  0  0  0
   98.6500  100.7450  104.5030 C   0  0  0  0  0  0  0  0  0  0  0  0
   98.8360   99.3540  104.3660 C   0  0  0  0  0  0  0  0  0  0  0  0
   97.8230   98.5820  103.8200 C   0  0  0  0  0  0  0  0  0  0  0  0
   96.6440   99.2020  103.4080 C   0  0  0  0  0  0  0  0  0  0  0  0
   96.4320  100.5980  103.5410 C   0  0  0  0  0  0  0  0  0  0  0  0
  100.1130   98.7430  104.8700 C   0  0  0  0  0  0  0  0  0  0  0  0
  101.3250   99.5760  104.4520 C   0  0  0  0  0  0  0  0  0  0  0  0
  101.1360  101.0920  104.5960 C   0  0  0  0  0  0  0  0  0  0  0  0
   99.7760  101.5210  105.1500 C   0  0  0  0  0  0  0  0  0  0  0  0
   94.1450  100.3660  102.5280 C   0  0  0  0  0  0  0  0  0  0  0  0
   93.3240   99.7970  103.3330 O   0  0  0  0  0  0  0  0  0  0  0  0
   94.2440  100.0670  101.2850 O   0  0  0  0  0  0  0  0  0  0  0  0
   96.1790  104.8080  104.1260 C   0  0  0  0  0  0  0  0  0  0  0  0
   96.9820  105.2430  105.3410 C   0  0  0  0  0  0  0  0  0  0  0  0
   96.4650  105.0430  106.6300 C   0  0  0  0  0  0  0  0  0  0  0  0
   98.2310  105.8640  105.1950 C   0  0  0  0  0  0  0  0  0  0  0  0
   97.1890  105.4410  107.7550 C   0  0  0  0  0  0  0  0  0  0  0  0
   98.9580  106.2590  106.3210 C   0  0  0  0  0  0  0  0  0  0  0  0
   98.4340  106.0430  107.5950 C   0  0  0  0  0  0  0  0  0  0  0  0
   99.3370  106.5290  108.9800 Cl  0  0  0  0  0  0  0  0  0  0  0  0
  1  2  2  0  0  0  0
  1 11  1  0  0  0  0
  2  4  1  0  0  0  0
  3  2  1  0  0  0  0
  4 19  1  0  0  0  0
  4  5  2  0  0  0  0
  6  5  1  0  0  0  0
  6  7  1  0  0  0  0
  7 15  1  0  0  0  0
  8  7  2  0  0  0  0
  8 12  1  0  0  0  0
  9  8  1  0  0  0  0
 10 11  1  0  0  0  0
 10  9  2  0  0  0  0
 11  6  2  0  0  0  0
 13 14  1  0  0  0  0
 13 12  1  0  0  0  0
 14 15  1  0  0  0  0
 16  1  1  0  0  0  0
 16 17  1  0  0  0  0
 18 16  2  0  0  0  0
 19 20  1  0  0  0  0
 20 21  1  0  0  0  0
 21 23  2  0  0  0  0
 22 20  2  0  0  0  0
 22 24  1  0  0  0  0
 24 25  2  0  0  0  0
 25 23  1  0  0  0  0
 25 26  1  0  0  0  0
M  END
>  <minimizedAffinity>
-7.94646311

>  <CNNscore>
0.596829295

>  <CNNaffinity>
6.48647642

$$$$

 OpenBabel08282608113D

 26 29  0  0  0  0  0  0  0  0999 V2000
  101.0390   99.8540  105.8850 C   0  0  0  0  0  0  0  0  0  0  0  0
  100.6640   99.4260  104.5700 C   0  0  0  0  0  0  0  0  0  0  0  0
  101.0070   98.3060  104.0440 O   0  0  0  0  0  0  0  0  0  0  0  0
   99.8540  100.3730  103.8860 C   0  0  0  0  0  0  0  0  0  0  0  0
   99.4360  101.5840  104.3740 N   0  0  0  0  0  0  0  0  0  0  0  0
   99.8220  101.9490  105.6000 C   0  0  0  0  0  0  0  0  0  0  0  0
   99.4130  103.1980  106.0950 C   0  0  0  0  0  0  0  0  0  0  0  0
   99.7630  103.6350  107.3890 C   0  0  0  0  0  0  0  0  0  0  0  0
  100.5380  102.8180  108.1970 C   0  0  0  0  0  0  0  0  0  0  0  0
  100.9640  101.5860  107.7070 C   0  0  0  0  0  0  0  0  0  0  0  0
  100.6210  101.1220  106.4110 C   0  0  0  0  0  0  0  0  0  0  0  0
   99.2350  104.9560  107.8720 C   0  0  0  0  0  0  0  0  0  0  0  0
   99.3720  106.0320  106.7950 C   0  0  0  0  0  0  0  0  0  0  0  0
   98.9960  105.5700  105.3810 C   0  0  0  0  0  0  0  0  0  0  0  0
   98.5270  104.1170  105.2830 C   0  0  0  0  0  0  0  0  0  0  0  0
  101.8990   98.9970  106.8110 C   0  0  0  0  0  0  0  0  0  0  0  0
  101.9430   99.3210  108.0510 O   0  0  0  0  0  0  0  0  0  0  0  0
  102.6870   98.1410  106.2710 O   0  0  0  0  0  0  0  0  0  0  0  0
   99.3620  100.0910  102.4750 C   0  0  0  0  0  0  0  0  0  0  0  0
   97.8540   99.9400  102.3600 C   0  0  0  0  0  0  0  0  0  0  0  0
   97.1770   99.0240  103.1770 C   0  0  0  0  0  0  0  0  0  0  0  0
   97.1240  100.6930  101.4280 C   0  0  0  0  0  0  0  0  0  0  0  0
   95.7930   98.8720  103.0800 C   0  0  0  0  0  0  0  0  0  0  0  0
   95.7390  100.5450  101.3320 C   0  0  0  0  0  0  0  0  0  0  0  0
   95.0800   99.6370  102.1610 C   0  0  0  0  0  0  0  0  0  0  0  0
   93.3700   99.4610  102.0400 Cl  0  0  0  0  0  0  0  0  0  0  0  0
  1 11  1  0  0  0  0
  1 16  1  0  0  0  0
  2  1  2  0  0  0  0
  3  2  1  0  0  0  0
  4  5  2  0  0  0  0
  4  2  1  0  0  0  0
  5  6  1  0  0  0  0
  6  7  2  0  0  0  0
  6 11  1  0  0  0  0
  7  8  1  0  0  0  0
  8 12  1  0  0  0  0
  8  9  2  0  0  0  0
 10  9  1  0  0  0  0
 11 10  2  0  0  0  0
 13 12  1  0  0  0  0
 14 13  1  0  0  0  0
 15 14  1  0  0  0  0
 15  7  1  0  0  0  0
 16 17  1  0  0  0  0
 18 16  2  0  0  0  0
 19  4  1  0  0  0  0
 20 19  1  0  0  0  0
 20 21  1  0  0  0  0
 22 20  2  0  0  0  0
 23 21  2  0  0  0  0
 24 22  1  0  0  0  0
 24 25  2  0  0  0  0
 25 23  1  0  0  0  0
 26 25  1  0  0  0  0
M  END
>  <minimizedAffinity>
-8.50360107

>  <CNNscore>
0.520484746

>  <CNNaffinity>
6.61382818

$$$$

 OpenBabel08282608113D

 26 29  0  0  0  0  0  0  0  0999 V2000
  102.0990   99.7570  106.7260 C   0  0  0  0  0  0  0  0  0  0  0  0
  101.9440  100.7980  107.7000 C   0  0  0  0  0  0  0  0  0  0  0  0
  102.5780  100.8510  108.8150 O   0  0  0  0  0  0  0  0  0  0  0  0
  101.0080  101.7920  107.3070 C   0  0  0  0  0  0  0  0  0  0  0  0
  100.2960  101.8180  106.1350 N   0  0  0  0  0  0  0  0  0  0  0  0
  100.4610  100.8190  105.2630 C   0  0  0  0  0  0  0  0  0  0  0  0
   99.7170  100.8310  104.0720 C   0  0  0  0  0  0  0  0  0  0  0  0
   99.8610   99.8230  103.0970 C   0  0  0  0  0  0  0  0  0  0  0  0
  100.7520   98.7840  103.3170 C   0  0  0  0  0  0  0  0  0  0  0  0
  101.4790   98.7540  104.5060 C   0  0  0  0  0  0  0  0  0  0  0  0
  101.3560   99.7600  105.4980 C   0  0  0  0  0  0  0  0  0  0  0  0
   99.0790   99.9370  101.8190 C   0  0  0  0  0  0  0  0  0  0  0  0
   97.6290  100.3330  102.0940 C   0  0  0  0  0  0  0  0  0  0  0  0
   97.4570  101.4290  103.1540 C   0  0  0  0  0  0  0  0  0  0  0  0
   98.7640  101.9600  103.7470 C   0  0  0  0  0  0  0  0  0  0  0  0
  103.0590   98.5870  106.9250 C   0  0  0  0  0  0  0  0  0  0  0  0
  104.1470   98.8130  107.5660 O   0  0  0  0  0  0  0  0  0  0  0  0
  102.8310   97.5100  106.2690 O   0  0  0  0  0  0  0  0  0  0  0  0
  100.7110  102.9750  108.2160 C   0  0  0  0  0  0  0  0  0  0  0  0
   99.3690  103.6380  107.9580 C   0  0  0  0  0  0  0  0  0  0  0  0
   98.1810  102.9300  108.1910 C   0  0  0  0  0  0  0  0  0  0  0  0
   99.2950  104.9500  107.4680 C   0  0  0  0  0  0  0  0  0  0  0  0
   96.9400  103.5240  107.9560 C   0  0  0  0  0  0  0  0  0  0  0  0
   98.0550  105.5480  107.2350 C   0  0  0  0  0  0  0  0  0  0  0  0
   96.8840  104.8330  107.4830 C   0  0  0  0  0  0  0  0  0  0  0  0
   95.3560  105.5770  107.1980 Cl  0  0  0  0  0  0  0  0  0  0  0  0
  1 16  1  0  0  0  0
  1  2  1  0  0  0  0
  2  3  1  0  0  0  0
  4  2  2  0  0  0  0
  4 19  1  0  0  0  0
  5  4  1  0  0  0  0
  6 11  1  0  0  0  0
  6  5  2  0  0  0  0
  7  6  1  0  0  0  0
  8  9  1  0  0  0  0
  8  7  2  0  0  0  0
  9 10  2  0  0  0  0
 10 11  1  0  0  0  0
 11  1  2  0  0  0  0
 12 13  1  0  0  0  0
 12  8  1  0  0  0  0
 13 14  1  0  0  0  0
 14 15  1  0  0  0  0
 15  7  1  0  0  0  0
 16 17  1  0  0  0  0
 18 16  2  0  0  0  0
 20 21  1  0  0  0  0
 20 19  1  0  0  0  0
 22 20  2  0  0  0  0
 23 21  2  0  0  0  0
 24 22  1  0  0  0  0
 24 25  2  0  0  0  0
 25 23  1  0  0  0  0
 26 25  1  0  0  0  0
M  END
>  <minimizedAffinity>
-8.90120125

>  <CNNscore>
0.508367717

>  <CNNaffinity>
6.74259949

$$$$

 OpenBabel08282608113D

 26 29  0  0  0  0  0  0  0  0999 V2000
   97.5240  101.0670  104.6620 C   0  0  0  0  0  0  0  0  0  0  0  0
   97.4560  102.0970  105.6580 C   0  0  0  0  0  0  0  0  0  0  0  0
   98.2380  102.1800  106.6720 O   0  0  0  0  0  0  0  0  0  0  0  0
   96.4230  103.0410  105.4120 C   0  0  0  0  0  0  0  0  0  0  0  0
   95.5510  103.0320  104.3540 N   0  0  0  0  0  0  0  0  0  0  0  0
   95.6420  102.0450  103.4580 C   0  0  0  0  0  0  0  0  0  0  0  0
   94.7360  102.0210  102.3840 C   0  0  0  0  0  0  0  0  0  0  0  0
   94.7920  101.0240  101.3880 C   0  0  0  0  0  0  0  0  0  0  0  0
   95.7570  100.0330  101.4700 C   0  0  0  0  0  0  0  0  0  0  0  0
   96.6470  100.0380  102.5420 C   0  0  0  0  0  0  0  0  0  0  0  0
   96.6150  101.0340  103.5530 C   0  0  0  0  0  0  0  0  0  0  0  0
   93.8310  101.1000  100.2360 C   0  0  0  0  0  0  0  0  0  0  0  0
   92.4160  101.4190  100.7180 C   0  0  0  0  0  0  0  0  0  0  0  0
   92.3410  102.5020  101.8020 C   0  0  0  0  0  0  0  0  0  0  0  0
   93.6900  103.0990  102.2090 C   0  0  0  0  0  0  0  0  0  0  0  0
   98.5620   99.9490  104.7110 C   0  0  0  0  0  0  0  0  0  0  0  0
   99.7540  100.2260  104.3280 O   0  0  0  0  0  0  0  0  0  0  0  0
   98.1440   98.7560  104.9270 O   0  0  0  0  0  0  0  0  0  0  0  0
   96.1990  104.2040  106.3660 C   0  0  0  0  0  0  0  0  0  0  0  0
   97.3420  105.2040  106.4100 C   0  0  0  0  0  0  0  0  0  0  0  0
   97.9950  105.5730  105.2260 C   0  0  0  0  0  0  0  0  0  0  0  0
   97.7730  105.7520  107.6270 C   0  0  0  0  0  0  0  0  0  0  0  0
   99.0500  106.4880  105.2510 C   0  0  0  0  0  0  0  0  0  0  0  0
   98.8260  106.6690  107.6540 C   0  0  0  0  0  0  0  0  0  0  0  0
   99.4570  107.0350  106.4650 C   0  0  0  0  0  0  0  0  0  0  0  0
  100.7530  108.1700  106.5040 Cl  0  0  0  0  0  0  0  0  0  0  0  0
  1 16  1  0  0  0  0
  1  2  1  0  0  0  0
  2  3  1  0  0  0  0
  4  2  2  0  0  0  0
  4 19  1  0  0  0  0
  5  4  1  0  0  0  0
  6 11  1  0  0  0  0
  6  5  2  0  0  0  0
  7  6  1  0  0  0  0
  8  9  1  0  0  0  0
  8  7  2  0  0  0  0
  9 10  2  0  0  0  0
 10 11  1  0  0  0  0
 11  1  2  0  0  0  0
 12 13  1  0  0  0  0
 12  8  1  0  0  0  0
 13 14  1  0  0  0  0
 14 15  1  0  0  0  0
 15  7  1  0  0  0  0
 16 18  1  0  0  0  0
 17 16  2  0  0  0  0
 19 20  1  0  0  0  0
 20 22  1  0  0  0  0
 21 23  1  0  0  0  0
 21 20  2  0  0  0  0
 22 24  2  0  0  0  0
 23 25  2  0  0  0  0
 25 26  1  0  0  0  0
 25 24  1  0  0  0  0
M  END
>  <minimizedAffinity>
-7.59290791

>  <CNNscore>
0.49343729

>  <CNNaffinity>
6.17233849

$$$$

 OpenBabel08282608113D

 26 29  0  0  0  0  0  0  0  0999 V2000
  101.0550  100.1280  105.4590 C   0  0  0  0  0  0  0  0  0  0  0  0
  101.6600  101.4210  105.3290 C   0  0  0  0  0  0  0  0  0  0  0  0
  102.7670  101.7640  105.8800 O   0  0  0  0  0  0  0  0  0  0  0  0
  100.9080  102.3080  104.5120 C   0  0  0  0  0  0  0  0  0  0  0  0
   99.7250  102.0220  103.8810 N   0  0  0  0  0  0  0  0  0  0  0  0
   99.1890  100.8090  104.0420 C   0  0  0  0  0  0  0  0  0  0  0  0
   97.9660  100.5200  103.4150 C   0  0  0  0  0  0  0  0  0  0  0  0
   97.3580   99.2530  103.5210 C   0  0  0  0  0  0  0  0  0  0  0  0
   97.9740   98.2630  104.2710 C   0  0  0  0  0  0  0  0  0  0  0  0
   99.1780   98.5470  104.9130 C   0  0  0  0  0  0  0  0  0  0  0  0
   99.8110   99.8120  104.8150 C   0  0  0  0  0  0  0  0  0  0  0  0
   96.0820   98.9990  102.7700 C   0  0  0  0  0  0  0  0  0  0  0  0
   95.1100  100.1690  102.9220 C   0  0  0  0  0  0  0  0  0  0  0  0
   95.7580  101.5540  102.8090 C   0  0  0  0  0  0  0  0  0  0  0  0
   97.2660  101.5390  102.5440 C   0  0  0  0  0  0  0  0  0  0  0  0
  101.6870   99.0070  106.2800 C   0  0  0  0  0  0  0  0  0  0  0  0
  101.7290   99.1540  107.5530 O   0  0  0  0  0  0  0  0  0  0  0  0
  102.3230   98.0910  105.6480 O   0  0  0  0  0  0  0  0  0  0  0  0
  101.3950  103.7260  104.2620 C   0  0  0  0  0  0  0  0  0  0  0  0
  100.7720  104.7700  105.1740 C   0  0  0  0  0  0  0  0  0  0  0  0
   99.9380  104.3700  106.2270 C   0  0  0  0  0  0  0  0  0  0  0  0
  101.0010  106.1380  104.9660 C   0  0  0  0  0  0  0  0  0  0  0  0
   99.3550  105.3170  107.0720 C   0  0  0  0  0  0  0  0  0  0  0  0
  100.4220  107.0870  105.8110 C   0  0  0  0  0  0  0  0  0  0  0  0
   99.6040  106.6710  106.8620 C   0  0  0  0  0  0  0  0  0  0  0  0
   98.8940  107.8460  107.9040 Cl  0  0  0  0  0  0  0  0  0  0  0  0
  1 16  1  0  0  0  0
  2  1  1  0  0  0  0
  2  3  1  0  0  0  0
  4  2  2  0  0  0  0
  5  6  2  0  0  0  0
  5  4  1  0  0  0  0
  6 11  1  0  0  0  0
  7  8  2  0  0  0  0
  7  6  1  0  0  0  0
  8  9  1  0  0  0  0
  9 10  2  0  0  0  0
 11 10  1  0  0  0  0
 11  1  2  0  0  0  0
 12 13  1  0  0  0  0
 12  8  1  0  0  0  0
 14 13  1  0  0  0  0
 15 14  1  0  0  0  0
 15  7  1  0  0  0  0
 16 17  1  0  0  0  0
 18 16  2  0  0  0  0
 19  4  1  0  0  0  0
 19 20  1  0  0  0  0
 20 21  1  0  0  0  0
 21 23  2  0  0  0  0
 22 20  2  0  0  0  0
 22 24  1  0  0  0  0
 24 25  2  0  0  0  0
 25 23  1  0  0  0  0
 25 26  1  0  0  0  0
M  END
>  <minimizedAffinity>
-7.98197269

>  <CNNscore>
0.48587662

>  <CNNaffinity>
6.60803413

$$$$

 OpenBabel08282608113D

 26 29  0  0  0  0  0  0  0  0999 V2000
  101.3710  100.8270  107.0360 C   0  0  0  0  0  0  0  0  0  0  0  0
  101.1070   99.7910  106.0800 C   0  0  0  0  0  0  0  0  0  0  0  0
  101.9170   98.8350  105.8030 O   0  0  0  0  0  0  0  0  0  0  0  0
   99.8360   99.9190  105.4570 C   0  0  0  0  0  0  0  0  0  0  0  0
   98.9100  100.9010  105.7000 N   0  0  0  0  0  0  0  0  0  0  0  0
   99.2040  101.8540  106.5880 C   0  0  0  0  0  0  0  0  0  0  0  0
   98.2660  102.8740  106.8220 C   0  0  0  0  0  0  0  0  0  0  0  0
   98.5010  103.8960  107.7640 C   0  0  0  0  0  0  0  0  0  0  0  0
   99.6910  103.9070  108.4750 C   0  0  0  0  0  0  0  0  0  0  0  0
  100.6350  102.9110  108.2340 C   0  0  0  0  0  0  0  0  0  0  0  0
  100.4190  101.8690  107.2960 C   0  0  0  0  0  0  0  0  0  0  0  0
   97.4240  104.9150  108.0070 C   0  0  0  0  0  0  0  0  0  0  0  0
   96.8250  105.4090  106.6900 C   0  0  0  0  0  0  0  0  0  0  0  0
   96.5660  104.3070  105.6550 C   0  0  0  0  0  0  0  0  0  0  0  0
   96.9290  102.8930  106.1160 C   0  0  0  0  0  0  0  0  0  0  0  0
  102.6680  100.8900  107.8370 C   0  0  0  0  0  0  0  0  0  0  0  0
  103.5830  101.6900  107.4260 O   0  0  0  0  0  0  0  0  0  0  0  0
  102.8560  100.0000  108.7410 O   0  0  0  0  0  0  0  0  0  0  0  0
   99.3840   98.9110  104.4130 C   0  0  0  0  0  0  0  0  0  0  0  0
   99.7390   99.2900  102.9850 C   0  0  0  0  0  0  0  0  0  0  0  0
  101.0550   99.1310  102.5250 C   0  0  0  0  0  0  0  0  0  0  0  0
   98.7720   99.8190  102.1180 C   0  0  0  0  0  0  0  0  0  0  0  0
  101.3970   99.4780  101.2170 C   0  0  0  0  0  0  0  0  0  0  0  0
   99.1120  100.1640  100.8080 C   0  0  0  0  0  0  0  0  0  0  0  0
  100.4230   99.9890  100.3630 C   0  0  0  0  0  0  0  0  0  0  0  0
  100.8360  100.4120   98.7450 Cl  0  0  0  0  0  0  0  0  0  0  0  0
  1 11  1  0  0  0  0
  1 16  1  0  0  0  0
  2  1  2  0  0  0  0
  3  2  1  0  0  0  0
  4  5  2  0  0  0  0
  4  2  1  0  0  0  0
  5  6  1  0  0  0  0
  6  7  2  0  0  0  0
  6 11  1  0  0  0  0
  7  8  1  0  0  0  0
  8 12  1  0  0  0  0
  8  9  2  0  0  0  0
 10  9  1  0  0  0  0
 11 10  2  0  0  0  0
 13 12  1  0  0  0  0
 14 15  1  0  0  0  0
 14 13  1  0  0  0  0
 15  7  1  0  0  0  0
 16 18  1  0  0  0  0
 17 16  2  0  0  0  0
 19  4  1  0  0  0  0
 20 19  1  0  0  0  0
 21 20  1  0  0  0  0
 22 20  2  0  0  0  0
 23 21  2  0  0  0  0
 24 22  1  0  0  0  0
 25 24  2  0  0  0  0
 25 23  1  0  0  0  0
 26 25  1  0  0  0  0
M  END
>  <minimizedAffinity>
-7.6490593

>  <CNNscore>
0.470724225

>  <CNNaffinity>
6.56335068

$$$$

 OpenBabel08282608113D

 26 29  0  0  0  0  0  0  0  0999 V2000
  100.3420  100.5560  105.7040 C   0  0  0  0  0  0  0  0  0  0  0  0
  100.1460  101.4560  106.8020 C   0  0  0  0  0  0  0  0  0  0  0  0
  100.9000  101.5110  107.8400 O   0  0  0  0  0  0  0  0  0  0  0  0
   99.0190  102.3040  106.6330 C   0  0  0  0  0  0  0  0  0  0  0  0
   98.1680  102.3170  105.5570 N   0  0  0  0  0  0  0  0  0  0  0  0
   98.3800  101.4510  104.5630 C   0  0  0  0  0  0  0  0  0  0  0  0
   97.4980  101.4470  103.4690 C   0  0  0  0  0  0  0  0  0  0  0  0
   97.6780  100.5780  102.3740 C   0  0  0  0  0  0  0  0  0  0  0  0
   98.7460   99.6940  102.3730 C   0  0  0  0  0  0  0  0  0  0  0  0
   99.6140   99.6780  103.4630 C   0  0  0  0  0  0  0  0  0  0  0  0
   99.4580  100.5470  104.5730 C   0  0  0  0  0  0  0  0  0  0  0  0
   96.7310  100.6760  101.2120 C   0  0  0  0  0  0  0  0  0  0  0  0
   95.2820  100.7840  101.6880 C   0  0  0  0  0  0  0  0  0  0  0  0
   95.0730  101.7260  102.8810 C   0  0  0  0  0  0  0  0  0  0  0  0
   96.3410  102.4180  103.3850 C   0  0  0  0  0  0  0  0  0  0  0  0
  101.4960   99.5580  105.6590 C   0  0  0  0  0  0  0  0  0  0  0  0
  102.6740   99.9990  105.9130 O   0  0  0  0  0  0  0  0  0  0  0  0
  101.2620   98.3970  105.1690 O   0  0  0  0  0  0  0  0  0  0  0  0
   98.6530  103.3230  107.7010 C   0  0  0  0  0  0  0  0  0  0  0  0
   99.0280  104.7540  107.3510 C   0  0  0  0  0  0  0  0  0  0  0  0
   98.6220  105.8070  108.1830 C   0  0  0  0  0  0  0  0  0  0  0  0
   99.7610  105.0440  106.1910 C   0  0  0  0  0  0  0  0  0  0  0  0
   98.9560  107.1270  107.8740 C   0  0  0  0  0  0  0  0  0  0  0  0
  100.0990  106.3640  105.8820 C   0  0  0  0  0  0  0  0  0  0  0  0
   99.6970  107.3980  106.7260 C   0  0  0  0  0  0  0  0  0  0  0  0
  100.1200  109.0240  106.3420 Cl  0  0  0  0  0  0  0  0  0  0  0  0
  1  2  1  0  0  0  0
  2  3  1  0  0  0  0
  4  2  2  0  0  0  0
  4 19  1  0  0  0  0
  5  4  1  0  0  0  0
  6 11  1  0  0  0  0
  6  5  2  0  0  0  0
  7  6  1  0  0  0  0
  8  7  2  0  0  0  0
  9  8  1  0  0  0  0
  9 10  2  0  0  0  0
 10 11  1  0  0  0  0
 11  1  2  0  0  0  0
 12 13  1  0  0  0  0
 12  8  1  0  0  0  0
 13 14  1  0  0  0  0
 14 15  1  0  0  0  0
 15  7  1  0  0  0  0
 16  1  1  0  0  0  0
 16 17  1  0  0  0  0
 18 16  2  0  0  0  0
 20 19  1  0  0  0  0
 20 21  1  0  0  0  0
 22 20  2  0  0  0  0
 23 21  2  0  0  0  0
 24 22  1  0  0  0  0
 24 25  2  0  0  0  0
 25 23  1  0  0  0  0
 26 25  1  0  0  0  0
M  END
>  <minimizedAffinity>
-8.83630371

>  <CNNscore>
0.46750468

>  <CNNaffinity>
6.59884644

$$$$

 OpenBabel08282608113D

 26 29  0  0  0  0  0  0  0  0999 V2000
   96.2790  100.8970  105.2040 C   0  0  0  0  0  0  0  0  0  0  0  0
   96.4050  101.7330  106.3610 C   0  0  0  0  0  0  0  0  0  0  0  0
   95.4380  102.0310  107.1510 O   0  0  0  0  0  0  0  0  0  0  0  0
   97.7280  102.2110  106.5620 C   0  0  0  0  0  0  0  0  0  0  0  0
   98.8170  101.9360  105.7760 N   0  0  0  0  0  0  0  0  0  0  0  0
   98.6510  101.1640  104.6980 C   0  0  0  0  0  0  0  0  0  0  0  0
   99.7600  100.8990  103.8780 C   0  0  0  0  0  0  0  0  0  0  0  0
   99.6620  100.0710  102.7410 C   0  0  0  0  0  0  0  0  0  0  0  0
   98.4390   99.5070  102.4120 C   0  0  0  0  0  0  0  0  0  0  0  0
   97.3290   99.7810  103.2100 C   0  0  0  0  0  0  0  0  0  0  0  0
   97.4050  100.6060  104.3620 C   0  0  0  0  0  0  0  0  0  0  0  0
  100.9050   99.7820  101.9490 C   0  0  0  0  0  0  0  0  0  0  0  0
  101.7240  101.0530  101.7230 C   0  0  0  0  0  0  0  0  0  0  0  0
  101.8380  101.9640  102.9530 C   0  0  0  0  0  0  0  0  0  0  0  0
  101.1330  101.4430  104.2070 C   0  0  0  0  0  0  0  0  0  0  0  0
   94.9540  100.2600  104.7930 C   0  0  0  0  0  0  0  0  0  0  0  0
   94.5790   99.2080  105.4240 O   0  0  0  0  0  0  0  0  0  0  0  0
   94.3980  100.6800  103.7170 O   0  0  0  0  0  0  0  0  0  0  0  0
   98.0500  103.1160  107.7410 C   0  0  0  0  0  0  0  0  0  0  0  0
   98.5820  104.4840  107.3500 C   0  0  0  0  0  0  0  0  0  0  0  0
   98.4740  105.5590  108.2440 C   0  0  0  0  0  0  0  0  0  0  0  0
   99.1640  104.6990  106.0920 C   0  0  0  0  0  0  0  0  0  0  0  0
   98.9550  106.8230  107.8980 C   0  0  0  0  0  0  0  0  0  0  0  0
   99.6480  105.9620  105.7450 C   0  0  0  0  0  0  0  0  0  0  0  0
   99.5430  107.0170  106.6510 C   0  0  0  0  0  0  0  0  0  0  0  0
  100.1460  108.5730  106.2190 Cl  0  0  0  0  0  0  0  0  0  0  0  0
  1  2  1  0  0  0  0
  2  4  2  0  0  0  0
  2  3  1  0  0  0  0
  4 19  1  0  0  0  0
  5  4  1  0  0  0  0
  6  5  2  0  0  0  0
  7 15  1  0  0  0  0
  7  6  1  0  0  0  0
  8  7  2  0  0  0  0
  9  8  1  0  0  0  0
  9 10  2  0  0  0  0
 10 11  1  0  0  0  0
 11  6  1  0  0  0  0
 11  1  2  0  0  0  0
 12  8  1  0  0  0  0
 13 12  1  0  0  0  0
 13 14  1  0  0  0  0
 14 15  1  0  0  0  0
 16  1  1  0  0  0  0
 16 17  1  0  0  0  0
 18 16  2  0  0  0  0
 20 19  1  0  0  0  0
 20 21  1  0  0  0  0
 22 20  2  0  0  0  0
 23 21  2  0  0  0  0
 24 22  1  0  0  0  0
 24 25  2  0  0  0  0
 25 23  1  0  0  0  0
 26 25  1  0  0  0  0
M  END
>  <minimizedAffinity>
-7.58666515

>  <CNNscore>
0.467492491

>  <CNNaffinity>
6.57161713

$$$$
