
 OpenBabel08282615343D

 30 32  0  0  0  0  0  0  0  0999 V2000
   99.3220   99.8990  103.8440 C   0  0  0  0  0  0  0  0  0  0  0  0
   99.1540  100.2330  102.4990 C   0  0  0  0  0  0  0  0  0  0  0  0
   97.8680  100.4820  102.0140 C   0  0  0  0  0  0  0  0  0  0  0  0
   96.7470  100.3780  102.8540 C   0  0  0  0  0  0  0  0  0  0  0  0
   96.9330  100.0170  104.1900 C   0  0  0  0  0  0  0  0  0  0  0  0
   98.2170   99.7800  104.6910 C   0  0  0  0  0  0  0  0  0  0  0  0
  100.9560   99.5920  104.4670 S   0  0  0  0  0  0  0  0  0  0  0  0
  101.4050   98.3220  103.9380 O   0  0  0  0  0  0  0  0  0  0  0  0
  101.7310  100.8020  104.2920 O   0  0  0  0  0  0  0  0  0  0  0  0
  100.6360   99.4630  106.1280 N   0  0  0  0  0  0  0  0  0  0  0  0
  100.4830  100.4200  106.4560 H   0  0  0  0  0  0  0  0  0  0  0  0
  101.7890   98.9440  106.8420 C   0  0  0  0  0  0  0  0  0  0  0  0
  103.6450   98.4340  108.2070 C   0  0  0  0  0  0  0  0  0  0  0  0
  103.6530   97.7470  107.0810 N   0  0  0  0  0  0  0  0  0  0  0  0
  102.3340   99.5390  108.3490 S   0  0  0  0  0  0  0  0  0  0  0  0
  102.5770   98.0630  106.2730 N   0  0  0  0  0  0  0  0  0  0  0  0
  104.6700   98.3210  109.2740 C   0  0  0  0  0  0  0  0  0  0  0  0
   95.4950  100.6580  102.2750 N   0  0  0  0  0  0  0  0  0  0  0  0
   94.6490   99.8050  101.6030 C   0  0  0  0  0  0  0  0  0  0  0  0
   94.8900   98.6150  101.3920 O   0  0  0  0  0  0  0  0  0  0  0  0
   95.1990  101.6450  102.3290 H   0  0  0  0  0  0  0  0  0  0  0  0
   93.3180  100.3410  101.1270 C   0  0  0  0  0  0  0  0  0  0  0  0
   92.4520   99.3490  100.6080 C   0  0  0  0  0  0  0  0  0  0  0  0
   92.8880  101.6860  101.0890 C   0  0  0  0  0  0  0  0  0  0  0  0
   91.1980   99.6620  100.0750 C   0  0  0  0  0  0  0  0  0  0  0  0
   91.6180  101.9790  100.5370 C   0  0  0  0  0  0  0  0  0  0  0  0
   90.7800  100.9820  100.0400 C   0  0  0  0  0  0  0  0  0  0  0  0
   93.6850  102.8570  101.5820 C   0  0  0  0  0  0  0  0  0  0  0  0
   93.1550  103.5630  102.4950 O   0  0  0  0  0  0  0  0  0  0  0  0
   94.8020  103.0750  101.0210 O   0  0  0  0  0  0  0  0  0  0  0  0
  1  7  1  0  0  0  0
  1  6  1  0  0  0  0
  2  1  2  0  0  0  0
  3  2  1  0  0  0  0
  3  4  2  0  0  0  0
  4  5  1  0  0  0  0
  5  6  2  0  0  0  0
  7 10  1  0  0  0  0
  8  7  2  0  0  0  0
  9  7  2  0  0  0  0
 10 11  1  0  0  0  0
 10 12  1  0  0  0  0
 12 15  1  0  0  0  0
 13 15  1  0  0  0  0
 13 17  1  0  0  0  0
 14 13  2  0  0  0  0
 16 12  2  0  0  0  0
 16 14  1  0  0  0  0
 18 21  1  0  0  0  0
 18  4  1  0  0  0  0
 19 18  1  0  0  0  0
 20 19  2  0  0  0  0
 22 19  1  0  0  0  0
 23 22  2  0  0  0  0
 24 22  1  0  0  0  0
 24 28  1  0  0  0  0
 25 23  1  0  0  0  0
 26 24  2  0  0  0  0
 27 25  2  0  0  0  0
 27 26  1  0  0  0  0
 28 29  1  0  0  0  0
 30 28  2  0  0  0  0
M  END
>  <minimizedAffinity>
-7.88912106

>  <CNNscore>
0.730264723

>  <CNNaffinity>
5.96399498

$$$$

 OpenBabel08282615343D

 30 32  0  0  0  0  0  0  0  0999 V2000
   94.7350  100.0940  102.3800 C   0  0  0  0  0  0  0  0  0  0  0  0
   94.8110   99.7630  103.7340 C   0  0  0  0  0  0  0  0  0  0  0  0
   95.5730  100.5620  104.5900 C   0  0  0  0  0  0  0  0  0  0  0  0
   96.2780  101.6740  104.1020 C   0  0  0  0  0  0  0  0  0  0  0  0
   96.2120  101.9740  102.7400 C   0  0  0  0  0  0  0  0  0  0  0  0
   95.4390  101.1910  101.8750 C   0  0  0  0  0  0  0  0  0  0  0  0
   93.7600   99.0870  101.2910 S   0  0  0  0  0  0  0  0  0  0  0  0
   94.5580   97.9440  100.9030 O   0  0  0  0  0  0  0  0  0  0  0  0
   92.4500   98.9290  101.8880 O   0  0  0  0  0  0  0  0  0  0  0  0
   93.5650  100.1460   99.9800 N   0  0  0  0  0  0  0  0  0  0  0  0
   94.2340  100.9050  100.1350 H   0  0  0  0  0  0  0  0  0  0  0  0
   92.2390  100.7360   99.9800 C   0  0  0  0  0  0  0  0  0  0  0  0
   90.1930  101.8630  100.3140 C   0  0  0  0  0  0  0  0  0  0  0  0
   90.0620  100.8260   99.5080 N   0  0  0  0  0  0  0  0  0  0  0  0
   91.7810  102.0770  100.9370 S   0  0  0  0  0  0  0  0  0  0  0  0
   91.2570  100.1540   99.3310 N   0  0  0  0  0  0  0  0  0  0  0  0
   89.0880  102.7750  100.7030 C   0  0  0  0  0  0  0  0  0  0  0  0
   97.0080  102.4220  105.0440 N   0  0  0  0  0  0  0  0  0  0  0  0
   96.6170  103.5420  105.7420 C   0  0  0  0  0  0  0  0  0  0  0  0
   95.5160  104.0820  105.6240 O   0  0  0  0  0  0  0  0  0  0  0  0
   97.9800  102.1090  105.1930 H   0  0  0  0  0  0  0  0  0  0  0  0
   97.5750  104.1290  106.7530 C   0  0  0  0  0  0  0  0  0  0  0  0
   97.5470  103.4850  108.0140 C   0  0  0  0  0  0  0  0  0  0  0  0
   98.4190  105.2520  106.5980 C   0  0  0  0  0  0  0  0  0  0  0  0
   98.3280  103.9200  109.0880 C   0  0  0  0  0  0  0  0  0  0  0  0
   99.1930  105.6790  107.7040 C   0  0  0  0  0  0  0  0  0  0  0  0
   99.1540  105.0210  108.9330 C   0  0  0  0  0  0  0  0  0  0  0  0
   98.5560  106.0560  105.3400 C   0  0  0  0  0  0  0  0  0  0  0  0
   99.7240  106.4620  105.0480 O   0  0  0  0  0  0  0  0  0  0  0  0
   97.4950  106.3030  104.6910 O   0  0  0  0  0  0  0  0  0  0  0  0
  1  2  1  0  0  0  0
  2  3  2  0  0  0  0
  4  3  1  0  0  0  0
  4 18  1  0  0  0  0
  5  4  2  0  0  0  0
  6  1  2  0  0  0  0
  6  5  1  0  0  0  0
  7  9  2  0  0  0  0
  7  1  1  0  0  0  0
  8  7  2  0  0  0  0
 10 12  1  0  0  0  0
 10 11  1  0  0  0  0
 10  7  1  0  0  0  0
 12 15  1  0  0  0  0
 13 17  1  0  0  0  0
 13 15  1  0  0  0  0
 14 13  2  0  0  0  0
 16 14  1  0  0  0  0
 16 12  2  0  0  0  0
 18 21  1  0  0  0  0
 18 19  1  0  0  0  0
 19 22  1  0  0  0  0
 20 19  2  0  0  0  0
 22 23  1  0  0  0  0
 23 25  2  0  0  0  0
 24 22  2  0  0  0  0
 24 26  1  0  0  0  0
 26 27  2  0  0  0  0
 27 25  1  0  0  0  0
 28 24  1  0  0  0  0
 29 28  1  0  0  0  0
 30 28  2  0  0  0  0
M  END
>  <minimizedAffinity>
-8.18026829

>  <CNNscore>
0.630039871

>  <CNNaffinity>
5.81364107

$$$$

 OpenBabel08282615343D

 30 32  0  0  0  0  0  0  0  0999 V2000
   99.7450  101.4910  104.9830 C   0  0  0  0  0  0  0  0  0  0  0  0
   98.5100  101.7670  105.5730 C   0  0  0  0  0  0  0  0  0  0  0  0
   97.3470  101.6530  104.8070 C   0  0  0  0  0  0  0  0  0  0  0  0
   97.4090  101.2880  103.4520 C   0  0  0  0  0  0  0  0  0  0  0  0
   98.6550  101.0420  102.8730 C   0  0  0  0  0  0  0  0  0  0  0  0
   99.8250  101.1380  103.6330 C   0  0  0  0  0  0  0  0  0  0  0  0
  101.2240  101.6270  105.9560 S   0  0  0  0  0  0  0  0  0  0  0  0
  101.9740  102.7650  105.4730 O   0  0  0  0  0  0  0  0  0  0  0  0
  100.8500  101.5000  107.3490 O   0  0  0  0  0  0  0  0  0  0  0  0
  102.0050  100.1800  105.5360 N   0  0  0  0  0  0  0  0  0  0  0  0
  101.3070   99.6240  105.0350 H   0  0  0  0  0  0  0  0  0  0  0  0
  102.3830   99.4290  106.7190 C   0  0  0  0  0  0  0  0  0  0  0  0
  103.3120   98.4400  108.6490 C   0  0  0  0  0  0  0  0  0  0  0  0
  102.4620   97.6350  108.0400 N   0  0  0  0  0  0  0  0  0  0  0  0
  103.5510   99.9460  107.8550 S   0  0  0  0  0  0  0  0  0  0  0  0
  101.9350   98.2080  106.8970 N   0  0  0  0  0  0  0  0  0  0  0  0
  104.0450   98.1070  109.8970 C   0  0  0  0  0  0  0  0  0  0  0  0
   96.1830  101.1890  102.7680 N   0  0  0  0  0  0  0  0  0  0  0  0
   95.5730  100.0670  102.2550 C   0  0  0  0  0  0  0  0  0  0  0  0
   96.0470   98.9310  102.3160 O   0  0  0  0  0  0  0  0  0  0  0  0
   95.7050  102.0870  102.5950 H   0  0  0  0  0  0  0  0  0  0  0  0
   94.2130  100.2190  101.6120 C   0  0  0  0  0  0  0  0  0  0  0  0
   93.6220   98.9930  101.2210 C   0  0  0  0  0  0  0  0  0  0  0  0
   93.5230  101.4150  101.3140 C   0  0  0  0  0  0  0  0  0  0  0  0
   92.3890   98.9380  100.5670 C   0  0  0  0  0  0  0  0  0  0  0  0
   92.2800  101.3340  100.6420 C   0  0  0  0  0  0  0  0  0  0  0  0
   91.7150  100.1140  100.2760 C   0  0  0  0  0  0  0  0  0  0  0  0
   94.0130  102.7940  101.6420 C   0  0  0  0  0  0  0  0  0  0  0  0
   95.0460  103.1950  101.0200 O   0  0  0  0  0  0  0  0  0  0  0  0
   93.3880  103.4330  102.5420 O   0  0  0  0  0  0  0  0  0  0  0  0
  1  2  1  0  0  0  0
  1  7  1  0  0  0  0
  3  2  2  0  0  0  0
  4  3  1  0  0  0  0
  5  4  2  0  0  0  0
  5  6  1  0  0  0  0
  6  1  2  0  0  0  0
  7  9  2  0  0  0  0
  8  7  2  0  0  0  0
 10  7  1  0  0  0  0
 10 12  1  0  0  0  0
 11 10  1  0  0  0  0
 12 16  2  0  0  0  0
 12 15  1  0  0  0  0
 13 17  1  0  0  0  0
 14 13  2  0  0  0  0
 15 13  1  0  0  0  0
 16 14  1  0  0  0  0
 18  4  1  0  0  0  0
 19 20  2  0  0  0  0
 19 18  1  0  0  0  0
 21 18  1  0  0  0  0
 22 19  1  0  0  0  0
 23 22  2  0  0  0  0
 24 22  1  0  0  0  0
 24 28  1  0  0  0  0
 25 23  1  0  0  0  0
 26 24  2  0  0  0  0
 27 25  2  0  0  0  0
 27 26  1  0  0  0  0
 28 30  1  0  0  0  0
 29 28  2  0  0  0  0
M  END
>  <minimizedAffinity>
-8.04384327

>  <CNNscore>
0.614090204

>  <CNNaffinity>
5.91497564

$$$$

 OpenBabel08282615343D

 30 32  0  0  0  0  0  0  0  0999 V2000
   94.8850  100.5010  102.3480 C   0  0  0  0  0  0  0  0  0  0  0  0
   94.8170  100.4670  103.7420 C   0  0  0  0  0  0  0  0  0  0  0  0
   95.5690  101.3820  104.4840 C   0  0  0  0  0  0  0  0  0  0  0  0
   96.4030  102.3140  103.8470 C   0  0  0  0  0  0  0  0  0  0  0  0
   96.4790  102.3150  102.4520 C   0  0  0  0  0  0  0  0  0  0  0  0
   95.7190  101.4140  101.6980 C   0  0  0  0  0  0  0  0  0  0  0  0
   93.9240   99.3450  101.4020 S   0  0  0  0  0  0  0  0  0  0  0  0
   94.7640   98.2070  101.0990 O   0  0  0  0  0  0  0  0  0  0  0  0
   92.6450   99.1900  102.0620 O   0  0  0  0  0  0  0  0  0  0  0  0
   93.6340  100.2570  100.0010 N   0  0  0  0  0  0  0  0  0  0  0  0
   94.2630  101.0620  100.0590 H   0  0  0  0  0  0  0  0  0  0  0  0
   92.2770  100.7740   99.9870 C   0  0  0  0  0  0  0  0  0  0  0  0
   90.1730  101.7950  100.2950 C   0  0  0  0  0  0  0  0  0  0  0  0
   90.0990  100.7320   99.5180 N   0  0  0  0  0  0  0  0  0  0  0  0
   91.7480  102.1130  100.9090 S   0  0  0  0  0  0  0  0  0  0  0  0
   91.3290  100.1220   99.3560 N   0  0  0  0  0  0  0  0  0  0  0  0
   89.0200  102.6570  100.6620 C   0  0  0  0  0  0  0  0  0  0  0  0
   97.1120  103.2010  104.6790 N   0  0  0  0  0  0  0  0  0  0  0  0
   96.9340  104.5560  104.8400 C   0  0  0  0  0  0  0  0  0  0  0  0
   96.0920  105.2210  104.2350 O   0  0  0  0  0  0  0  0  0  0  0  0
   97.8950  102.7780  105.2030 H   0  0  0  0  0  0  0  0  0  0  0  0
   97.7930  105.2780  105.8530 C   0  0  0  0  0  0  0  0  0  0  0  0
   98.5930  106.3070  105.3000 C   0  0  0  0  0  0  0  0  0  0  0  0
   97.9240  105.0030  107.2330 C   0  0  0  0  0  0  0  0  0  0  0  0
   99.4870  107.0510  106.0740 C   0  0  0  0  0  0  0  0  0  0  0  0
   98.8430  105.7640  107.9940 C   0  0  0  0  0  0  0  0  0  0  0  0
   99.6130  106.7780  107.4270 C   0  0  0  0  0  0  0  0  0  0  0  0
   97.1660  103.9410  107.9720 C   0  0  0  0  0  0  0  0  0  0  0  0
   95.9450  103.7870  107.6560 O   0  0  0  0  0  0  0  0  0  0  0  0
   97.7880  103.3110  108.8800 O   0  0  0  0  0  0  0  0  0  0  0  0
  1  2  1  0  0  0  0
  2  3  2  0  0  0  0
  4  3  1  0  0  0  0
  4 18  1  0  0  0  0
  5  4  2  0  0  0  0
  6  1  2  0  0  0  0
  6  5  1  0  0  0  0
  7  9  2  0  0  0  0
  7  1  1  0  0  0  0
  8  7  2  0  0  0  0
 10 11  1  0  0  0  0
 10  7  1  0  0  0  0
 12 10  1  0  0  0  0
 12 15  1  0  0  0  0
 13 17  1  0  0  0  0
 13 15  1  0  0  0  0
 14 13  2  0  0  0  0
 16 14  1  0  0  0  0
 16 12  2  0  0  0  0
 18 19  1  0  0  0  0
 18 21  1  0  0  0  0
 19 22  1  0  0  0  0
 20 19  2  0  0  0  0
 22 24  1  0  0  0  0
 23 22  2  0  0  0  0
 23 25  1  0  0  0  0
 24 28  1  0  0  0  0
 24 26  2  0  0  0  0
 25 27  2  0  0  0  0
 27 26  1  0  0  0  0
 28 30  1  0  0  0  0
 29 28  2  0  0  0  0
M  END
>  <minimizedAffinity>
-8.30857754

>  <CNNscore>
0.556876421

>  <CNNaffinity>
5.47552872

$$$$

 OpenBabel08282615343D

 30 32  0  0  0  0  0  0  0  0999 V2000
   98.8690   99.5790  103.1350 C   0  0  0  0  0  0  0  0  0  0  0  0
   98.2170  100.1930  102.0640 C   0  0  0  0  0  0  0  0  0  0  0  0
   96.8230  100.2860  102.0760 C   0  0  0  0  0  0  0  0  0  0  0  0
   96.0740   99.7510  103.1360 C   0  0  0  0  0  0  0  0  0  0  0  0
   96.7410   99.1160  104.1860 C   0  0  0  0  0  0  0  0  0  0  0  0
   98.1380   99.0310  104.1930 C   0  0  0  0  0  0  0  0  0  0  0  0
  100.6410   99.4680  103.1280 S   0  0  0  0  0  0  0  0  0  0  0  0
  101.0060   98.1200  103.5060 O   0  0  0  0  0  0  0  0  0  0  0  0
  101.1170  100.0670  101.8990 O   0  0  0  0  0  0  0  0  0  0  0  0
  101.0250  100.5570  104.3710 N   0  0  0  0  0  0  0  0  0  0  0  0
  101.7060  101.2070  103.9700 H   0  0  0  0  0  0  0  0  0  0  0  0
  101.6780   99.8790  105.4760 C   0  0  0  0  0  0  0  0  0  0  0  0
  102.9260   99.1150  107.3270 C   0  0  0  0  0  0  0  0  0  0  0  0
  102.5050   98.1210  106.5690 N   0  0  0  0  0  0  0  0  0  0  0  0
  102.5060  100.6760  106.7410 S   0  0  0  0  0  0  0  0  0  0  0  0
  101.7930   98.5710  105.4730 N   0  0  0  0  0  0  0  0  0  0  0  0
  103.7210   98.9520  108.5700 C   0  0  0  0  0  0  0  0  0  0  0  0
   94.6770   99.9020  103.0620 N   0  0  0  0  0  0  0  0  0  0  0  0
   93.7650   99.1390  102.3690 C   0  0  0  0  0  0  0  0  0  0  0  0
   94.0630   98.1710  101.6670 O   0  0  0  0  0  0  0  0  0  0  0  0
   94.2980  100.7220  103.5620 H   0  0  0  0  0  0  0  0  0  0  0  0
   92.2970   99.4740  102.5040 C   0  0  0  0  0  0  0  0  0  0  0  0
   91.7530   99.1740  103.7760 C   0  0  0  0  0  0  0  0  0  0  0  0
   91.4280   99.9790  101.5110 C   0  0  0  0  0  0  0  0  0  0  0  0
   90.4020   99.3690  104.0710 C   0  0  0  0  0  0  0  0  0  0  0  0
   90.0610  100.1600  101.8320 C   0  0  0  0  0  0  0  0  0  0  0  0
   89.5520   99.8640  103.0950 C   0  0  0  0  0  0  0  0  0  0  0  0
   91.8350  100.3330  100.1120 C   0  0  0  0  0  0  0  0  0  0  0  0
   92.9530  100.9220   99.9760 O   0  0  0  0  0  0  0  0  0  0  0  0
   91.0180  100.0570   99.1820 O   0  0  0  0  0  0  0  0  0  0  0  0
  1  6  1  0  0  0  0
  2  3  1  0  0  0  0
  2  1  2  0  0  0  0
  3  4  2  0  0  0  0
  4  5  1  0  0  0  0
  5  6  2  0  0  0  0
  7  1  1  0  0  0  0
  7  8  2  0  0  0  0
  7 10  1  0  0  0  0
  9  7  2  0  0  0  0
 10 12  1  0  0  0  0
 11 10  1  0  0  0  0
 12 15  1  0  0  0  0
 13 17  1  0  0  0  0
 14 13  2  0  0  0  0
 15 13  1  0  0  0  0
 16 12  2  0  0  0  0
 16 14  1  0  0  0  0
 18  4  1  0  0  0  0
 18 21  1  0  0  0  0
 19 22  1  0  0  0  0
 19 18  1  0  0  0  0
 20 19  2  0  0  0  0
 22 23  1  0  0  0  0
 23 25  2  0  0  0  0
 24 26  1  0  0  0  0
 24 22  2  0  0  0  0
 26 27  2  0  0  0  0
 27 25  1  0  0  0  0
 28 24  1  0  0  0  0
 29 28  1  0  0  0  0
 30 28  2  0  0  0  0
M  END
>  <minimizedAffinity>
-8.18251324

>  <CNNscore>
0.556672454

>  <CNNaffinity>
5.53838396

$$$$

 OpenBabel08282615343D

 30 32  0  0  0  0  0  0  0  0999 V2000
   94.9250  100.1770  102.5810 C   0  0  0  0  0  0  0  0  0  0  0  0
   95.1190  101.5350  102.3180 C   0  0  0  0  0  0  0  0  0  0  0  0
   95.6740  102.3500  103.3080 C   0  0  0  0  0  0  0  0  0  0  0  0
   96.0160  101.8260  104.5650 C   0  0  0  0  0  0  0  0  0  0  0  0
   95.7900  100.4710  104.8200 C   0  0  0  0  0  0  0  0  0  0  0  0
   95.2490   99.6420  103.8310 C   0  0  0  0  0  0  0  0  0  0  0  0
   94.2290   99.1370  101.3230 S   0  0  0  0  0  0  0  0  0  0  0  0
   94.2200   99.8810  100.0820 O   0  0  0  0  0  0  0  0  0  0  0  0
   94.8600   97.8380  101.4240 O   0  0  0  0  0  0  0  0  0  0  0  0
   92.6500   98.9500  101.9140 N   0  0  0  0  0  0  0  0  0  0  0  0
   92.2910   98.0950  101.4810 H   0  0  0  0  0  0  0  0  0  0  0  0
   91.7970  100.0410  101.4780 C   0  0  0  0  0  0  0  0  0  0  0  0
   90.5150  101.7090  100.4100 C   0  0  0  0  0  0  0  0  0  0  0  0
   90.7850  102.0180  101.6630 N   0  0  0  0  0  0  0  0  0  0  0  0
   91.2060  100.2240   99.8850 S   0  0  0  0  0  0  0  0  0  0  0  0
   91.5540  101.0500  102.2810 N   0  0  0  0  0  0  0  0  0  0  0  0
   89.7150  102.5500   99.4850 C   0  0  0  0  0  0  0  0  0  0  0  0
   96.5780  102.7230  105.4920 N   0  0  0  0  0  0  0  0  0  0  0  0
   97.8280  102.6930  106.0680 C   0  0  0  0  0  0  0  0  0  0  0  0
   98.6700  101.8200  105.8510 O   0  0  0  0  0  0  0  0  0  0  0  0
   95.9490  103.4780  105.8080 H   0  0  0  0  0  0  0  0  0  0  0  0
   98.2190  103.8200  106.9960 C   0  0  0  0  0  0  0  0  0  0  0  0
   98.3390  103.4340  108.3530 C   0  0  0  0  0  0  0  0  0  0  0  0
   98.4080  105.1830  106.6730 C   0  0  0  0  0  0  0  0  0  0  0  0
   98.6450  104.3490  109.3620 C   0  0  0  0  0  0  0  0  0  0  0  0
   98.7080  106.0930  107.7150 C   0  0  0  0  0  0  0  0  0  0  0  0
   98.8300  105.6850  109.0430 C   0  0  0  0  0  0  0  0  0  0  0  0
   98.3020  105.7620  105.2940 C   0  0  0  0  0  0  0  0  0  0  0  0
   99.3620  106.2600  104.8020 O   0  0  0  0  0  0  0  0  0  0  0  0
   97.1590  105.7480  104.7460 O   0  0  0  0  0  0  0  0  0  0  0  0
  1  6  1  0  0  0  0
  2  1  2  0  0  0  0
  2  3  1  0  0  0  0
  3  4  2  0  0  0  0
  4  5  1  0  0  0  0
  4 18  1  0  0  0  0
  6  5  2  0  0  0  0
  7  9  2  0  0  0  0
  7 10  1  0  0  0  0
  7  1  1  0  0  0  0
  8  7  2  0  0  0  0
 11 10  1  0  0  0  0
 12 10  1  0  0  0  0
 12 16  2  0  0  0  0
 13 14  2  0  0  0  0
 14 16  1  0  0  0  0
 15 13  1  0  0  0  0
 15 12  1  0  0  0  0
 17 13  1  0  0  0  0
 18 21  1  0  0  0  0
 18 19  1  0  0  0  0
 19 22  1  0  0  0  0
 20 19  2  0  0  0  0
 22 23  1  0  0  0  0
 23 25  2  0  0  0  0
 24 22  2  0  0  0  0
 24 26  1  0  0  0  0
 26 27  2  0  0  0  0
 27 25  1  0  0  0  0
 28 24  1  0  0  0  0
 29 28  1  0  0  0  0
 30 28  2  0  0  0  0
M  END
>  <minimizedAffinity>
-7.86849546

>  <CNNscore>
0.547540426

>  <CNNaffinity>
5.6138854

$$$$

 OpenBabel08282615343D

 30 32  0  0  0  0  0  0  0  0999 V2000
   95.6570   99.8980  102.3830 C   0  0  0  0  0  0  0  0  0  0  0  0
   96.7690  100.6550  102.0090 C   0  0  0  0  0  0  0  0  0  0  0  0
   97.7700  100.9090  102.9510 C   0  0  0  0  0  0  0  0  0  0  0  0
   97.6590  100.4330  104.2670 C   0  0  0  0  0  0  0  0  0  0  0  0
   96.5270   99.7000  104.6300 C   0  0  0  0  0  0  0  0  0  0  0  0
   95.5250   99.4270  103.6930 C   0  0  0  0  0  0  0  0  0  0  0  0
   94.3870   99.5660  101.1880 S   0  0  0  0  0  0  0  0  0  0  0  0
   94.2440  100.7360  100.3500 O   0  0  0  0  0  0  0  0  0  0  0  0
   94.6430   98.2560  100.6240 O   0  0  0  0  0  0  0  0  0  0  0  0
   93.0400   99.3960  102.2040 N   0  0  0  0  0  0  0  0  0  0  0  0
   92.7850   98.4060  102.1640 H   0  0  0  0  0  0  0  0  0  0  0  0
   91.9080  100.1510  101.7000 C   0  0  0  0  0  0  0  0  0  0  0  0
   90.2300  101.3260  100.5300 C   0  0  0  0  0  0  0  0  0  0  0  0
   90.2770  101.6670  101.8040 N   0  0  0  0  0  0  0  0  0  0  0  0
   91.4210  100.1780  100.0620 S   0  0  0  0  0  0  0  0  0  0  0  0
   91.2750  100.9930  102.4830 N   0  0  0  0  0  0  0  0  0  0  0  0
   89.2700  101.8810   99.5420 C   0  0  0  0  0  0  0  0  0  0  0  0
   98.7230  100.7310  105.1380 N   0  0  0  0  0  0  0  0  0  0  0  0
   99.7610   99.9200  105.5370 C   0  0  0  0  0  0  0  0  0  0  0  0
   99.9040   98.7500  105.1760 O   0  0  0  0  0  0  0  0  0  0  0  0
   98.6900  101.6710  105.5640 H   0  0  0  0  0  0  0  0  0  0  0  0
  100.8230  100.5030  106.4400 C   0  0  0  0  0  0  0  0  0  0  0  0
  100.6760  101.8910  106.6800 C   0  0  0  0  0  0  0  0  0  0  0  0
  101.9430   99.8470  106.9990 C   0  0  0  0  0  0  0  0  0  0  0  0
  101.5900  102.6130  107.4510 C   0  0  0  0  0  0  0  0  0  0  0  0
  102.8600  100.6020  107.7690 C   0  0  0  0  0  0  0  0  0  0  0  0
  102.6860  101.9660  107.9980 C   0  0  0  0  0  0  0  0  0  0  0  0
  102.2570   98.3900  106.8300 C   0  0  0  0  0  0  0  0  0  0  0  0
  102.6270   98.0170  105.6740 O   0  0  0  0  0  0  0  0  0  0  0  0
  102.0880   97.6400  107.8390 O   0  0  0  0  0  0  0  0  0  0  0  0
  1  6  1  0  0  0  0
  2  1  2  0  0  0  0
  2  3  1  0  0  0  0
  3  4  2  0  0  0  0
  4  5  1  0  0  0  0
  4 18  1  0  0  0  0
  6  5  2  0  0  0  0
  7 10  1  0  0  0  0
  7  1  1  0  0  0  0
  8  7  2  0  0  0  0
  9  7  2  0  0  0  0
 11 10  1  0  0  0  0
 12 10  1  0  0  0  0
 12 16  2  0  0  0  0
 13 14  2  0  0  0  0
 14 16  1  0  0  0  0
 15 13  1  0  0  0  0
 15 12  1  0  0  0  0
 17 13  1  0  0  0  0
 18 19  1  0  0  0  0
 18 21  1  0  0  0  0
 19 22  1  0  0  0  0
 20 19  2  0  0  0  0
 22 23  2  0  0  0  0
 22 24  1  0  0  0  0
 23 25  1  0  0  0  0
 24 26  2  0  0  0  0
 25 27  2  0  0  0  0
 26 27  1  0  0  0  0
 28 24  1  0  0  0  0
 28 30  1  0  0  0  0
 29 28  2  0  0  0  0
M  END
>  <minimizedAffinity>
-7.93094063

>  <CNNscore>
0.514307678

>  <CNNaffinity>
5.38025618

$$$$

 OpenBabel08282615343D

 30 32  0  0  0  0  0  0  0  0999 V2000
   98.5950  101.1730  105.1700 C   0  0  0  0  0  0  0  0  0  0  0  0
   97.4970  101.8920  105.6460 C   0  0  0  0  0  0  0  0  0  0  0  0
   96.2180  101.3420  105.5270 C   0  0  0  0  0  0  0  0  0  0  0  0
   96.0240  100.0920  104.9180 C   0  0  0  0  0  0  0  0  0  0  0  0
   97.1310   99.4000  104.4240 C   0  0  0  0  0  0  0  0  0  0  0  0
   98.4190   99.9330  104.5500 C   0  0  0  0  0  0  0  0  0  0  0  0
  100.2230  101.8640  105.3270 S   0  0  0  0  0  0  0  0  0  0  0  0
  100.3840  102.8680  104.2980 O   0  0  0  0  0  0  0  0  0  0  0  0
  100.4400  102.1700  106.7250 O   0  0  0  0  0  0  0  0  0  0  0  0
  101.1730  100.5030  104.9800 N   0  0  0  0  0  0  0  0  0  0  0  0
  100.5460   99.8350  104.5240 H   0  0  0  0  0  0  0  0  0  0  0  0
  101.6520   99.8770  106.2000 C   0  0  0  0  0  0  0  0  0  0  0  0
  102.6860   99.1550  108.1930 C   0  0  0  0  0  0  0  0  0  0  0  0
  102.0590   98.1720  107.5760 N   0  0  0  0  0  0  0  0  0  0  0  0
  102.6280  100.6600  107.3640 S   0  0  0  0  0  0  0  0  0  0  0  0
  101.4730   98.5910  106.3970 N   0  0  0  0  0  0  0  0  0  0  0  0
  103.4170   99.0160  109.4780 C   0  0  0  0  0  0  0  0  0  0  0  0
   94.7010   99.6180  104.8550 N   0  0  0  0  0  0  0  0  0  0  0  0
   93.9730   98.9690  105.8270 C   0  0  0  0  0  0  0  0  0  0  0  0
   94.4090   98.6840  106.9440 O   0  0  0  0  0  0  0  0  0  0  0  0
   94.2340   99.7410  103.9430 H   0  0  0  0  0  0  0  0  0  0  0  0
   92.5340   98.6150  105.5310 C   0  0  0  0  0  0  0  0  0  0  0  0
   91.8490   98.0310  106.6240 C   0  0  0  0  0  0  0  0  0  0  0  0
   91.8440   98.7420  104.3050 C   0  0  0  0  0  0  0  0  0  0  0  0
   90.5250   97.5940  106.5240 C   0  0  0  0  0  0  0  0  0  0  0  0
   90.5070   98.2840  104.2260 C   0  0  0  0  0  0  0  0  0  0  0  0
   89.8520   97.7210  105.3200 C   0  0  0  0  0  0  0  0  0  0  0  0
   92.4240   99.3210  103.0490 C   0  0  0  0  0  0  0  0  0  0  0  0
   92.1660  100.5420  102.8120 O   0  0  0  0  0  0  0  0  0  0  0  0
   93.0890   98.5390  102.3030 O   0  0  0  0  0  0  0  0  0  0  0  0
  1  7  1  0  0  0  0
  1  2  1  0  0  0  0
  3  2  2  0  0  0  0
  4  3  1  0  0  0  0
  5  6  1  0  0  0  0
  5  4  2  0  0  0  0
  6  1  2  0  0  0  0
  7  9  2  0  0  0  0
  8  7  2  0  0  0  0
 10  7  1  0  0  0  0
 10 12  1  0  0  0  0
 11 10  1  0  0  0  0
 12 16  2  0  0  0  0
 12 15  1  0  0  0  0
 13 17  1  0  0  0  0
 14 13  2  0  0  0  0
 15 13  1  0  0  0  0
 16 14  1  0  0  0  0
 18  4  1  0  0  0  0
 18 19  1  0  0  0  0
 19 20  2  0  0  0  0
 21 18  1  0  0  0  0
 22 19  1  0  0  0  0
 22 23  1  0  0  0  0
 24 22  2  0  0  0  0
 25 23  2  0  0  0  0
 26 24  1  0  0  0  0
 26 27  2  0  0  0  0
 27 25  1  0  0  0  0
 28 24  1  0  0  0  0
 29 28  1  0  0  0  0
 30 28  2  0  0  0  0
M  END
>  <minimizedAffinity>
-7.6567297

>  <CNNscore>
0.500678301

>  <CNNaffinity>
5.72706652

$$$$

 OpenBabel08282615343D

 30 32  0  0  0  0  0  0  0  0999 V2000
   98.7430   99.8120  103.4240 C   0  0  0  0  0  0  0  0  0  0  0  0
   98.3750  100.4620  102.2450 C   0  0  0  0  0  0  0  0  0  0  0  0
   97.0230  100.5270  101.8960 C   0  0  0  0  0  0  0  0  0  0  0  0
   96.0410   99.9290  102.7010 C   0  0  0  0  0  0  0  0  0  0  0  0
   96.4310   99.2590  103.8620 C   0  0  0  0  0  0  0  0  0  0  0  0
   97.7790   99.2010  104.2310 C   0  0  0  0  0  0  0  0  0  0  0  0
  100.4590   99.7360  103.8770 S   0  0  0  0  0  0  0  0  0  0  0  0
  100.8610   98.3460  103.8750 O   0  0  0  0  0  0  0  0  0  0  0  0
  101.1660  100.7310  103.0980 O   0  0  0  0  0  0  0  0  0  0  0  0
  100.3870  100.3300  105.4640 N   0  0  0  0  0  0  0  0  0  0  0  0
  100.7080  101.3000  105.4120 H   0  0  0  0  0  0  0  0  0  0  0  0
  101.3110   99.6190  106.3290 C   0  0  0  0  0  0  0  0  0  0  0  0
  102.8350   98.8000  107.9330 C   0  0  0  0  0  0  0  0  0  0  0  0
  102.8560   98.0900  106.8210 N   0  0  0  0  0  0  0  0  0  0  0  0
  101.7610  100.1420  107.8940 S   0  0  0  0  0  0  0  0  0  0  0  0
  101.9790   98.5840  105.8750 N   0  0  0  0  0  0  0  0  0  0  0  0
  103.6700   98.5220  109.1290 C   0  0  0  0  0  0  0  0  0  0  0  0
   94.7070  100.0570  102.2700 N   0  0  0  0  0  0  0  0  0  0  0  0
   93.8700  101.1430  102.3780 C   0  0  0  0  0  0  0  0  0  0  0  0
   94.1840  102.2100  102.9090 O   0  0  0  0  0  0  0  0  0  0  0  0
   94.2970   99.2050  101.8570 H   0  0  0  0  0  0  0  0  0  0  0  0
   92.4870  101.0490  101.7740 C   0  0  0  0  0  0  0  0  0  0  0  0
   92.3070  101.8520  100.6220 C   0  0  0  0  0  0  0  0  0  0  0  0
   91.3780  100.3180  102.2550 C   0  0  0  0  0  0  0  0  0  0  0  0
   91.0820  101.9320   99.9560 C   0  0  0  0  0  0  0  0  0  0  0  0
   90.1450  100.4220  101.5680 C   0  0  0  0  0  0  0  0  0  0  0  0
   89.9960  101.2140  100.4300 C   0  0  0  0  0  0  0  0  0  0  0  0
   91.3930   99.4340  103.4660 C   0  0  0  0  0  0  0  0  0  0  0  0
   92.1900   98.4450  103.4400 O   0  0  0  0  0  0  0  0  0  0  0  0
   90.5810   99.7150  104.3990 O   0  0  0  0  0  0  0  0  0  0  0  0
  1  7  1  0  0  0  0
  1  6  1  0  0  0  0
  2  1  2  0  0  0  0
  3  2  1  0  0  0  0
  3  4  2  0  0  0  0
  4  5  1  0  0  0  0
  5  6  2  0  0  0  0
  7 10  1  0  0  0  0
  8  7  2  0  0  0  0
  9  7  2  0  0  0  0
 10 12  1  0  0  0  0
 11 10  1  0  0  0  0
 12 15  1  0  0  0  0
 13 17  1  0  0  0  0
 14 13  2  0  0  0  0
 15 13  1  0  0  0  0
 16 12  2  0  0  0  0
 16 14  1  0  0  0  0
 18 19  1  0  0  0  0
 18  4  1  0  0  0  0
 19 20  2  0  0  0  0
 21 18  1  0  0  0  0
 22 24  1  0  0  0  0
 22 19  1  0  0  0  0
 23 22  2  0  0  0  0
 24 28  1  0  0  0  0
 25 27  2  0  0  0  0
 25 23  1  0  0  0  0
 26 24  2  0  0  0  0
 27 26  1  0  0  0  0
 28 30  1  0  0  0  0
 29 28  2  0  0  0  0
M  END
>  <minimizedAffinity>
-7.62669706

>  <CNNscore>
0.463428676

>  <CNNaffinity>
5.69023323

$$$$
