
 OpenBabel08282614413D

 18 19  0  0  1  0  0  0  0  0999 V2000
  104.0480   98.1600  110.2780 C   0  0  0  0  0  0  0  0  0  0  0  0
  103.8620   97.9080  108.7820 C   0  0  2  0  0  0  0  0  0  0  0  0
  105.2080   97.7310  108.0460 C   0  0  0  0  0  0  0  0  0  0  0  0
  106.1800   98.4170  108.4770 O   0  0  0  0  0  0  0  0  0  0  0  0
  105.1880   96.8920  107.0970 O   0  0  0  0  0  0  0  0  0  0  0  0
  103.0310   99.0030  108.1330 C   0  0  0  0  0  0  0  0  0  0  0  0
  102.3110   98.7350  106.9610 C   0  0  0  0  0  0  0  0  0  0  0  0
  102.9600  100.2910  108.6770 C   0  0  0  0  0  0  0  0  0  0  0  0
  101.5290   99.7260  106.3560 C   0  0  0  0  0  0  0  0  0  0  0  0
  102.1780  101.2740  108.0700 C   0  0  0  0  0  0  0  0  0  0  0  0
  101.4430  101.0190  106.9010 C   0  0  0  0  0  0  0  0  0  0  0  0
  102.1310  102.4880  108.6430 F   0  0  0  0  0  0  0  0  0  0  0  0
  100.6180  102.0560  106.2550 C   0  0  0  0  0  0  0  0  0  0  0  0
  101.1430  103.3280  105.9670 C   0  0  0  0  0  0  0  0  0  0  0  0
   99.2820  101.8040  105.8990 C   0  0  0  0  0  0  0  0  0  0  0  0
  100.3640  104.3080  105.3450 C   0  0  0  0  0  0  0  0  0  0  0  0
   98.5010  102.7830  105.2780 C   0  0  0  0  0  0  0  0  0  0  0  0
   99.0440  104.0350  105.0000 C   0  0  0  0  0  0  0  0  0  0  0  0
  2  1  1  1  0  0  0
  3  4  1  0  0  0  0
  3  2  1  0  0  0  0
  5  3  2  0  0  0  0
  6  8  1  0  0  0  0
  6  2  1  0  0  0  0
  7  6  2  0  0  0  0
  9 11  2  0  0  0  0
  9  7  1  0  0  0  0
 10 12  1  0  0  0  0
 10  8  2  0  0  0  0
 11 10  1  0  0  0  0
 13 11  1  0  0  0  0
 14 13  1  0  0  0  0
 15 13  2  0  0  0  0
 16 14  2  0  0  0  0
 17 15  1  0  0  0  0
 18 17  2  0  0  0  0
 18 16  1  0  0  0  0
M  END
>  <minimizedAffinity>
-7.02665854

>  <CNNscore>
0.891867042

>  <CNNaffinity>
5.89622259

$$$$

 OpenBabel08282614413D

 18 19  0  0  1  0  0  0  0  0999 V2000
  103.1310   98.3010  109.7360 C   0  0  0  0  0  0  0  0  0  0  0  0
  103.3770   98.2190  108.2300 C   0  0  2  0  0  0  0  0  0  0  0  0
  104.8470   97.8900  107.8930 C   0  0  0  0  0  0  0  0  0  0  0  0
  105.7270   98.4450  108.6130 O   0  0  0  0  0  0  0  0  0  0  0  0
  105.0030   97.0750  106.9350 O   0  0  0  0  0  0  0  0  0  0  0  0
  102.9320   99.4900  107.5230 C   0  0  0  0  0  0  0  0  0  0  0  0
  103.0420  100.7280  108.1700 C   0  0  0  0  0  0  0  0  0  0  0  0
  102.4070   99.4620  106.2250 C   0  0  0  0  0  0  0  0  0  0  0  0
  102.6500  101.9100  107.5290 C   0  0  0  0  0  0  0  0  0  0  0  0
  102.0200  100.6430  105.5920 C   0  0  0  0  0  0  0  0  0  0  0  0
  102.1330  101.8930  106.2220 C   0  0  0  0  0  0  0  0  0  0  0  0
  101.5400  100.5620  104.3400 F   0  0  0  0  0  0  0  0  0  0  0  0
  101.7210  103.1430  105.5580 C   0  0  0  0  0  0  0  0  0  0  0  0
  100.5050  103.7690  105.8770 C   0  0  0  0  0  0  0  0  0  0  0  0
  102.5370  103.7530  104.5890 C   0  0  0  0  0  0  0  0  0  0  0  0
  100.1190  104.9600  105.2540 C   0  0  0  0  0  0  0  0  0  0  0  0
  102.1530  104.9430  103.9640 C   0  0  0  0  0  0  0  0  0  0  0  0
  100.9430  105.5470  104.2990 C   0  0  0  0  0  0  0  0  0  0  0  0
  2  1  1  1  0  0  0
  3  2  1  0  0  0  0
  3  4  1  0  0  0  0
  5  3  2  0  0  0  0
  6  7  1  0  0  0  0
  6  2  1  0  0  0  0
  8  6  2  0  0  0  0
  9  7  2  0  0  0  0
 10 11  2  0  0  0  0
 10  8  1  0  0  0  0
 11  9  1  0  0  0  0
 12 10  1  0  0  0  0
 13 14  1  0  0  0  0
 13 11  1  0  0  0  0
 15 13  2  0  0  0  0
 16 14  2  0  0  0  0
 17 18  2  0  0  0  0
 17 15  1  0  0  0  0
 18 16  1  0  0  0  0
M  END
>  <minimizedAffinity>
-8.60442829

>  <CNNscore>
0.88665545

>  <CNNaffinity>
5.65237045

$$$$

 OpenBabel08282614413D

 18 19  0  0  1  0  0  0  0  0999 V2000
  102.9510   97.9160  109.6760 C   0  0  0  0  0  0  0  0  0  0  0  0
  103.3210   98.0140  108.1970 C   0  0  2  0  0  0  0  0  0  0  0  0
  104.8320   97.8030  107.9550 C   0  0  0  0  0  0  0  0  0  0  0  0
  105.6180   98.4480  108.7070 O   0  0  0  0  0  0  0  0  0  0  0  0
  105.1120   96.9790  107.0340 O   0  0  0  0  0  0  0  0  0  0  0  0
  102.8560   99.3290  107.5920 C   0  0  0  0  0  0  0  0  0  0  0  0
  102.4390   99.3780  106.2560 C   0  0  0  0  0  0  0  0  0  0  0  0
  102.8310  100.5120  108.3400 C   0  0  0  0  0  0  0  0  0  0  0  0
  101.9950  100.5770  105.6850 C   0  0  0  0  0  0  0  0  0  0  0  0
  102.3860  101.7040  107.7660 C   0  0  0  0  0  0  0  0  0  0  0  0
  101.9550  101.7680  106.4320 C   0  0  0  0  0  0  0  0  0  0  0  0
  102.3660  102.8060  108.5340 F   0  0  0  0  0  0  0  0  0  0  0  0
  101.4880  103.0250  105.8210 C   0  0  0  0  0  0  0  0  0  0  0  0
  100.3010  103.6450  106.2500 C   0  0  0  0  0  0  0  0  0  0  0  0
  102.2180  103.6500  104.7960 C   0  0  0  0  0  0  0  0  0  0  0  0
   99.8630  104.8430  105.6780 C   0  0  0  0  0  0  0  0  0  0  0  0
  101.7810  104.8470  104.2210 C   0  0  0  0  0  0  0  0  0  0  0  0
  100.6040  105.4440  104.6640 C   0  0  0  0  0  0  0  0  0  0  0  0
  2  1  1  1  0  0  0
  3  2  1  0  0  0  0
  3  4  1  0  0  0  0
  5  3  2  0  0  0  0
  6  2  1  0  0  0  0
  6  8  1  0  0  0  0
  7  6  2  0  0  0  0
  9  7  1  0  0  0  0
  9 11  2  0  0  0  0
 10  8  2  0  0  0  0
 10 12  1  0  0  0  0
 11 10  1  0  0  0  0
 13 14  1  0  0  0  0
 13 11  1  0  0  0  0
 15 13  2  0  0  0  0
 16 14  2  0  0  0  0
 17 18  2  0  0  0  0
 17 15  1  0  0  0  0
 18 16  1  0  0  0  0
M  END
>  <minimizedAffinity>
-8.24297523

>  <CNNscore>
0.838405788

>  <CNNaffinity>
5.6305871

$$$$

 OpenBabel08282614413D

 18 19  0  0  1  0  0  0  0  0999 V2000
  103.7950   99.2500  108.1380 C   0  0  0  0  0  0  0  0  0  0  0  0
  102.4220   99.1430  107.4760 C   0  0  2  0  0  0  0  0  0  0  0  0
  102.4480   98.2590  106.2100 C   0  0  0  0  0  0  0  0  0  0  0  0
  101.5260   98.4580  105.3670 O   0  0  0  0  0  0  0  0  0  0  0  0
  103.4150   97.4420  106.1520 O   0  0  0  0  0  0  0  0  0  0  0  0
  101.8460  100.5150  107.1650 C   0  0  0  0  0  0  0  0  0  0  0  0
  100.6700  100.9430  107.7950 C   0  0  0  0  0  0  0  0  0  0  0  0
  102.4640  101.3810  106.2530 C   0  0  0  0  0  0  0  0  0  0  0  0
  100.1320  102.2080  107.5310 C   0  0  0  0  0  0  0  0  0  0  0  0
  101.9230  102.6410  105.9950 C   0  0  0  0  0  0  0  0  0  0  0  0
  100.7520  103.0880  106.6260 C   0  0  0  0  0  0  0  0  0  0  0  0
  102.5650  103.4380  105.1250 F   0  0  0  0  0  0  0  0  0  0  0  0
  100.1760  104.4170  106.3540 C   0  0  0  0  0  0  0  0  0  0  0  0
   99.3840  105.0760  107.3090 C   0  0  0  0  0  0  0  0  0  0  0  0
  100.4080  105.0730  105.1320 C   0  0  0  0  0  0  0  0  0  0  0  0
   98.8460  106.3410  107.0540 C   0  0  0  0  0  0  0  0  0  0  0  0
   99.8710  106.3370  104.8750 C   0  0  0  0  0  0  0  0  0  0  0  0
   99.0900  106.9720  105.8380 C   0  0  0  0  0  0  0  0  0  0  0  0
  2  1  1  6  0  0  0
  3  2  1  0  0  0  0
  4  3  2  0  0  0  0
  5  3  1  0  0  0  0
  6  2  1  0  0  0  0
  6  7  1  0  0  0  0
  8  6  2  0  0  0  0
  9  7  2  0  0  0  0
 10  8  1  0  0  0  0
 10 11  2  0  0  0  0
 11  9  1  0  0  0  0
 12 10  1  0  0  0  0
 13 11  1  0  0  0  0
 13 14  1  0  0  0  0
 15 13  2  0  0  0  0
 16 14  2  0  0  0  0
 17 15  1  0  0  0  0
 17 18  2  0  0  0  0
 18 16  1  0  0  0  0
M  END
>  <minimizedAffinity>
-7.96940136

>  <CNNscore>
0.629830897

>  <CNNaffinity>
5.41249514

$$$$

 OpenBabel08282614413D

 18 19  0  0  1  0  0  0  0  0999 V2000
  103.5060   98.9600  109.6840 C   0  0  0  0  0  0  0  0  0  0  0  0
  102.7290   98.7160  108.3910 C   0  0  2  0  0  0  0  0  0  0  0  0
  103.5450   97.9060  107.3600 C   0  0  0  0  0  0  0  0  0  0  0  0
  102.9640   97.6400  106.2670 O   0  0  0  0  0  0  0  0  0  0  0  0
  104.7240   97.6180  107.7230 O   0  0  0  0  0  0  0  0  0  0  0  0
  102.2350  100.0200  107.7840 C   0  0  0  0  0  0  0  0  0  0  0  0
  103.1530  100.9780  107.3360 C   0  0  0  0  0  0  0  0  0  0  0  0
  100.8680  100.2980  107.6580 C   0  0  0  0  0  0  0  0  0  0  0  0
  102.7170  102.1780  106.7620 C   0  0  0  0  0  0  0  0  0  0  0  0
  100.4400  101.4950  107.0840 C   0  0  0  0  0  0  0  0  0  0  0  0
  101.3470  102.4610  106.6200 C   0  0  0  0  0  0  0  0  0  0  0  0
   99.1180  101.7050  106.9700 F   0  0  0  0  0  0  0  0  0  0  0  0
  100.8980  103.7290  106.0170 C   0  0  0  0  0  0  0  0  0  0  0  0
  101.5020  104.2350  104.8530 C   0  0  0  0  0  0  0  0  0  0  0  0
   99.8450  104.4690  106.5810 C   0  0  0  0  0  0  0  0  0  0  0  0
  101.0700  105.4320  104.2750 C   0  0  0  0  0  0  0  0  0  0  0  0
   99.4110  105.6670  106.0060 C   0  0  0  0  0  0  0  0  0  0  0  0
  100.0240  106.1470  104.8510 C   0  0  0  0  0  0  0  0  0  0  0  0
  2  1  1  1  0  0  0
  3  5  1  0  0  0  0
  3  2  1  0  0  0  0
  4  3  2  0  0  0  0
  6  2  1  0  0  0  0
  7  6  2  0  0  0  0
  8  6  1  0  0  0  0
  9  7  1  0  0  0  0
 10  8  2  0  0  0  0
 11  9  2  0  0  0  0
 11 10  1  0  0  0  0
 12 10  1  0  0  0  0
 13 15  1  0  0  0  0
 13 11  1  0  0  0  0
 14 13  2  0  0  0  0
 16 18  2  0  0  0  0
 16 14  1  0  0  0  0
 17 15  2  0  0  0  0
 18 17  1  0  0  0  0
M  END
>  <minimizedAffinity>
-7.89163589

>  <CNNscore>
0.605102062

>  <CNNaffinity>
5.3447938

$$$$

 OpenBabel08282614413D

 18 19  0  0  1  0  0  0  0  0999 V2000
  103.8480   99.2670  108.1320 C   0  0  0  0  0  0  0  0  0  0  0  0
  102.4640   99.1450  107.4960 C   0  0  2  0  0  0  0  0  0  0  0  0
  102.4830   98.2930  106.2080 C   0  0  0  0  0  0  0  0  0  0  0  0
  101.5850   98.5460  105.3540 O   0  0  0  0  0  0  0  0  0  0  0  0
  103.4220   97.4450  106.1460 O   0  0  0  0  0  0  0  0  0  0  0  0
  101.8500  100.5100  107.2310 C   0  0  0  0  0  0  0  0  0  0  0  0
  102.5150  101.4320  106.4110 C   0  0  0  0  0  0  0  0  0  0  0  0
  100.6210  100.8830  107.7890 C   0  0  0  0  0  0  0  0  0  0  0  0
  101.9580  102.6890  106.1450 C   0  0  0  0  0  0  0  0  0  0  0  0
  100.0710  102.1370  107.5190 C   0  0  0  0  0  0  0  0  0  0  0  0
  100.7200  103.0670  106.6920 C   0  0  0  0  0  0  0  0  0  0  0  0
   98.8810  102.4360  108.0650 F   0  0  0  0  0  0  0  0  0  0  0  0
  100.1440  104.3940  106.4070 C   0  0  0  0  0  0  0  0  0  0  0  0
  100.3190  105.0090  105.1560 C   0  0  0  0  0  0  0  0  0  0  0  0
   99.3940  105.0830  107.3750 C   0  0  0  0  0  0  0  0  0  0  0  0
   99.7640  106.2630  104.8820 C   0  0  0  0  0  0  0  0  0  0  0  0
   98.8390  106.3370  107.1050 C   0  0  0  0  0  0  0  0  0  0  0  0
   99.0240  106.9260  105.8560 C   0  0  0  0  0  0  0  0  0  0  0  0
  2  1  1  6  0  0  0
  3  2  1  0  0  0  0
  4  3  2  0  0  0  0
  5  3  1  0  0  0  0
  6  2  1  0  0  0  0
  6  8  1  0  0  0  0
  7  6  2  0  0  0  0
  9  7  1  0  0  0  0
  9 11  2  0  0  0  0
 10  8  2  0  0  0  0
 10 12  1  0  0  0  0
 11 10  1  0  0  0  0
 13 11  1  0  0  0  0
 13 15  1  0  0  0  0
 14 13  2  0  0  0  0
 16 14  1  0  0  0  0
 16 18  2  0  0  0  0
 17 15  2  0  0  0  0
 18 17  1  0  0  0  0
M  END
>  <minimizedAffinity>
-7.92809916

>  <CNNscore>
0.593451977

>  <CNNaffinity>
5.24259329

$$$$

 OpenBabel08282614413D

 18 19  0  0  1  0  0  0  0  0999 V2000
  103.6140  101.1780  107.4780 C   0  0  0  0  0  0  0  0  0  0  0  0
  102.4590  100.2850  107.9300 C   0  0  2  0  0  0  0  0  0  0  0  0
  102.9240   98.8550  108.2810 C   0  0  0  0  0  0  0  0  0  0  0  0
  102.2340   97.9070  107.8070 O   0  0  0  0  0  0  0  0  0  0  0  0
  103.9710   98.7970  108.9930 O   0  0  0  0  0  0  0  0  0  0  0  0
  101.3440  100.2510  106.8960 C   0  0  0  0  0  0  0  0  0  0  0  0
  100.2210  101.0750  107.0480 C   0  0  0  0  0  0  0  0  0  0  0  0
  101.4060   99.4100  105.7780 C   0  0  0  0  0  0  0  0  0  0  0  0
   99.1910  101.0670  106.1000 C   0  0  0  0  0  0  0  0  0  0  0  0
  100.3770   99.4090  104.8360 C   0  0  0  0  0  0  0  0  0  0  0  0
   99.2500  100.2340  104.9680 C   0  0  0  0  0  0  0  0  0  0  0  0
  100.4940   98.5960  103.7730 F   0  0  0  0  0  0  0  0  0  0  0  0
   98.1590  100.2330  103.9770 C   0  0  0  0  0  0  0  0  0  0  0  0
   98.0160  101.2800  103.0510 C   0  0  0  0  0  0  0  0  0  0  0  0
   97.2310   99.1780  103.9200 C   0  0  0  0  0  0  0  0  0  0  0  0
   96.9870  101.2740  102.1040 C   0  0  0  0  0  0  0  0  0  0  0  0
   96.2010   99.1700  102.9740 C   0  0  0  0  0  0  0  0  0  0  0  0
   96.0810  100.2180  102.0650 C   0  0  0  0  0  0  0  0  0  0  0  0
  2  1  1  6  0  0  0
  2  3  1  0  0  0  0
  3  5  1  0  0  0  0
  4  3  2  0  0  0  0
  6  7  1  0  0  0  0
  6  2  1  0  0  0  0
  8  6  2  0  0  0  0
  9  7  2  0  0  0  0
 10 11  2  0  0  0  0
 10  8  1  0  0  0  0
 11  9  1  0  0  0  0
 12 10  1  0  0  0  0
 13 11  1  0  0  0  0
 14 13  2  0  0  0  0
 15 13  1  0  0  0  0
 16 14  1  0  0  0  0
 17 15  2  0  0  0  0
 18 16  2  0  0  0  0
 18 17  1  0  0  0  0
M  END
>  <minimizedAffinity>
-6.7152276

>  <CNNscore>
0.542841673

>  <CNNaffinity>
4.81391144

$$$$

 OpenBabel08282614413D

 18 19  0  0  1  0  0  0  0  0999 V2000
  101.5040   98.4880  105.0610 C   0  0  0  0  0  0  0  0  0  0  0  0
  102.3850   99.3440  105.9700 C   0  0  2  0  0  0  0  0  0  0  0  0
  102.7890   98.6020  107.2630 C   0  0  0  0  0  0  0  0  0  0  0  0
  102.1010   97.5840  107.5650 O   0  0  0  0  0  0  0  0  0  0  0  0
  103.7880   99.0930  107.8670 O   0  0  0  0  0  0  0  0  0  0  0  0
  101.7250  100.6740  106.2940 C   0  0  0  0  0  0  0  0  0  0  0  0
  100.8110  100.7650  107.3510 C   0  0  0  0  0  0  0  0  0  0  0  0
  102.0070  101.8310  105.5570 C   0  0  0  0  0  0  0  0  0  0  0  0
  100.2030  101.9850  107.6730 C   0  0  0  0  0  0  0  0  0  0  0  0
  101.3990  103.0440  105.8840 C   0  0  0  0  0  0  0  0  0  0  0  0
  100.4880  103.1540  106.9460 C   0  0  0  0  0  0  0  0  0  0  0  0
  101.7170  104.1270  105.1560 F   0  0  0  0  0  0  0  0  0  0  0  0
   99.8410  104.4330  107.2920 C   0  0  0  0  0  0  0  0  0  0  0  0
   99.4460  104.7150  108.6110 C   0  0  0  0  0  0  0  0  0  0  0  0
   99.6050  105.4140  106.3140 C   0  0  0  0  0  0  0  0  0  0  0  0
   98.8410  105.9310  108.9410 C   0  0  0  0  0  0  0  0  0  0  0  0
   99.0000  106.6310  106.6410 C   0  0  0  0  0  0  0  0  0  0  0  0
   98.6190  106.8900  107.9560 C   0  0  0  0  0  0  0  0  0  0  0  0
  2  1  1  1  0  0  0
  2  6  1  0  0  0  0
  2  3  1  0  0  0  0
  3  4  2  0  0  0  0
  3  5  1  0  0  0  0
  6  7  1  0  0  0  0
  7  9  2  0  0  0  0
  8 10  1  0  0  0  0
  8  6  2  0  0  0  0
 10 11  2  0  0  0  0
 11 13  1  0  0  0  0
 11  9  1  0  0  0  0
 12 10  1  0  0  0  0
 13 14  1  0  0  0  0
 14 16  2  0  0  0  0
 15 17  1  0  0  0  0
 15 13  2  0  0  0  0
 17 18  2  0  0  0  0
 18 16  1  0  0  0  0
M  END
>  <minimizedAffinity>
-7.76251268

>  <CNNscore>
0.541190684

>  <CNNaffinity>
5.19398117

$$$$

 OpenBabel08282614413D

 18 19  0  0  1  0  0  0  0  0999 V2000
   94.7890   98.8760  105.6830 C   0  0  0  0  0  0  0  0  0  0  0  0
   95.6860   99.6890  104.7500 C   0  0  2  0  0  0  0  0  0  0  0  0
   96.7720   98.8220  104.0770 C   0  0  0  0  0  0  0  0  0  0  0  0
   97.5020   98.1360  104.8500 O   0  0  0  0  0  0  0  0  0  0  0  0
   96.7910   98.8820  102.8120 O   0  0  0  0  0  0  0  0  0  0  0  0
   96.3100  100.8740  105.4710 C   0  0  0  0  0  0  0  0  0  0  0  0
   97.5600  101.3610  105.0670 C   0  0  0  0  0  0  0  0  0  0  0  0
   95.6650  101.5030  106.5420 C   0  0  0  0  0  0  0  0  0  0  0  0
   98.1440  102.4590  105.7100 C   0  0  0  0  0  0  0  0  0  0  0  0
   96.2520  102.5980  107.1770 C   0  0  0  0  0  0  0  0  0  0  0  0
   97.4990  103.1050  106.7790 C   0  0  0  0  0  0  0  0  0  0  0  0
   95.5820  103.1770  108.1880 F   0  0  0  0  0  0  0  0  0  0  0  0
   98.1240  104.2590  107.4500 C   0  0  0  0  0  0  0  0  0  0  0  0
   98.7180  104.1300  108.7170 C   0  0  0  0  0  0  0  0  0  0  0  0
   98.1530  105.5250  106.8400 C   0  0  0  0  0  0  0  0  0  0  0  0
   99.3190  105.2220  109.3500 C   0  0  0  0  0  0  0  0  0  0  0  0
   98.7530  106.6190  107.4710 C   0  0  0  0  0  0  0  0  0  0  0  0
   99.3370  106.4660  108.7260 C   0  0  0  0  0  0  0  0  0  0  0  0
  2  6  1  0  0  0  0
  2  1  1  1  0  0  0
  3  2  1  0  0  0  0
  3  4  1  0  0  0  0
  5  3  2  0  0  0  0
  6  8  1  0  0  0  0
  7  6  2  0  0  0  0
  7  9  1  0  0  0  0
  8 10  2  0  0  0  0
  9 11  2  0  0  0  0
 10 12  1  0  0  0  0
 11 10  1  0  0  0  0
 11 13  1  0  0  0  0
 13 14  1  0  0  0  0
 14 16  2  0  0  0  0
 15 13  2  0  0  0  0
 15 17  1  0  0  0  0
 17 18  2  0  0  0  0
 18 16  1  0  0  0  0
M  END
>  <minimizedAffinity>
-6.77310085

>  <CNNscore>
0.534930944

>  <CNNaffinity>
4.89323807

$$$$
