
 OpenBabel08282614493D

 18 19  0  0  1  0  0  0  0  0999 V2000
  102.7510   98.4680  110.1070 C   0  0  0  0  0  0  0  0  0  0  0  0
  103.4800   99.1370  108.9430 C   0  0  1  0  0  0  0  0  0  0  0  0
  104.6920   98.3100  108.4590 C   0  0  0  0  0  0  0  0  0  0  0  0
  104.5420   97.0540  108.5280 O   0  0  0  0  0  0  0  0  0  0  0  0
  105.6870   98.9670  108.0340 O   0  0  0  0  0  0  0  0  0  0  0  0
  102.5220   99.4350  107.8010 C   0  0  0  0  0  0  0  0  0  0  0  0
  102.6190   98.7690  106.5720 C   0  0  0  0  0  0  0  0  0  0  0  0
  101.4990  100.3760  107.9670 C   0  0  0  0  0  0  0  0  0  0  0  0
  101.7180   99.0360  105.5350 C   0  0  0  0  0  0  0  0  0  0  0  0
  100.6030  100.6360  106.9290 C   0  0  0  0  0  0  0  0  0  0  0  0
  100.6850   99.9750  105.6930 C   0  0  0  0  0  0  0  0  0  0  0  0
   99.6310  101.5380  107.1490 F   0  0  0  0  0  0  0  0  0  0  0  0
   99.7380  100.2490  104.5960 C   0  0  0  0  0  0  0  0  0  0  0  0
   99.4080   99.2600  103.6550 C   0  0  0  0  0  0  0  0  0  0  0  0
   99.1290  101.5090  104.4630 C   0  0  0  0  0  0  0  0  0  0  0  0
   98.5030   99.5170  102.6210 C   0  0  0  0  0  0  0  0  0  0  0  0
   98.2250  101.7700  103.4290 C   0  0  0  0  0  0  0  0  0  0  0  0
   97.9120  100.7730  102.5080 C   0  0  0  0  0  0  0  0  0  0  0  0
  2  1  1  1  0  0  0
  3  4  1  0  0  0  0
  3  2  1  0  0  0  0
  5  3  2  0  0  0  0
  6  8  1  0  0  0  0
  6  2  1  0  0  0  0
  7  6  2  0  0  0  0
  9 11  2  0  0  0  0
  9  7  1  0  0  0  0
 10 12  1  0  0  0  0
 10  8  2  0  0  0  0
 11 10  1  0  0  0  0
 13 11  1  0  0  0  0
 14 13  2  0  0  0  0
 15 13  1  0  0  0  0
 16 14  1  0  0  0  0
 17 15  2  0  0  0  0
 18 16  2  0  0  0  0
 18 17  1  0  0  0  0
M  END
>  <minimizedAffinity>
-7.09158087

>  <CNNscore>
0.795771658

>  <CNNaffinity>
5.57785416

$$$$

 OpenBabel08282614493D

 18 19  0  0  1  0  0  0  0  0999 V2000
  102.6690   98.1390  108.9240 C   0  0  0  0  0  0  0  0  0  0  0  0
  102.9780   99.0250  107.7170 C   0  0  1  0  0  0  0  0  0  0  0  0
  102.7530   98.2870  106.3780 C   0  0  0  0  0  0  0  0  0  0  0  0
  101.8160   98.7530  105.6640 O   0  0  0  0  0  0  0  0  0  0  0  0
  103.5310   97.3190  106.1330 O   0  0  0  0  0  0  0  0  0  0  0  0
  102.1830  100.3200  107.7760 C   0  0  0  0  0  0  0  0  0  0  0  0
  102.7550  101.5090  108.2460 C   0  0  0  0  0  0  0  0  0  0  0  0
  100.8550  100.3510  107.3340 C   0  0  0  0  0  0  0  0  0  0  0  0
  102.0200  102.6990  108.2740 C   0  0  0  0  0  0  0  0  0  0  0  0
  100.1290  101.5430  107.3640 C   0  0  0  0  0  0  0  0  0  0  0  0
  100.6880  102.7430  107.8300 C   0  0  0  0  0  0  0  0  0  0  0  0
   98.8630  101.5170  106.9140 F   0  0  0  0  0  0  0  0  0  0  0  0
   99.9210  104.0010  107.8610 C   0  0  0  0  0  0  0  0  0  0  0  0
   99.5520  104.6590  106.6760 C   0  0  0  0  0  0  0  0  0  0  0  0
   99.5270  104.5800  109.0800 C   0  0  0  0  0  0  0  0  0  0  0  0
   98.8170  105.8480  106.7060 C   0  0  0  0  0  0  0  0  0  0  0  0
   98.7930  105.7700  109.1130 C   0  0  0  0  0  0  0  0  0  0  0  0
   98.4380  106.4030  107.9260 C   0  0  0  0  0  0  0  0  0  0  0  0
  2  6  1  0  0  0  0
  2  1  1  1  0  0  0
  3  2  1  0  0  0  0
  4  3  2  0  0  0  0
  5  3  1  0  0  0  0
  6  7  1  0  0  0  0
  7  9  2  0  0  0  0
  8 10  1  0  0  0  0
  8  6  2  0  0  0  0
 10 11  2  0  0  0  0
 11 13  1  0  0  0  0
 11  9  1  0  0  0  0
 12 10  1  0  0  0  0
 13 15  1  0  0  0  0
 14 16  1  0  0  0  0
 14 13  2  0  0  0  0
 15 17  2  0  0  0  0
 16 18  2  0  0  0  0
 18 17  1  0  0  0  0
M  END
>  <minimizedAffinity>
-7.82640553

>  <CNNscore>
0.675524056

>  <CNNaffinity>
5.38688231

$$$$

 OpenBabel08282614493D

 18 19  0  0  1  0  0  0  0  0999 V2000
  103.7360   98.3970  109.6230 C   0  0  0  0  0  0  0  0  0  0  0  0
  103.9250   98.9650  108.2160 C   0  0  1  0  0  0  0  0  0  0  0  0
  104.0070   97.8540  107.1450 C   0  0  0  0  0  0  0  0  0  0  0  0
  102.9840   97.7530  106.4030 O   0  0  0  0  0  0  0  0  0  0  0  0
  105.0800   97.1840  107.1110 O   0  0  0  0  0  0  0  0  0  0  0  0
  102.8370   99.9730  107.8860 C   0  0  0  0  0  0  0  0  0  0  0  0
  102.8890  101.2900  108.3640 C   0  0  0  0  0  0  0  0  0  0  0  0
  101.7610   99.6060  107.0690 C   0  0  0  0  0  0  0  0  0  0  0  0
  101.8920  102.2140  108.0350 C   0  0  0  0  0  0  0  0  0  0  0  0
  100.7710  100.5350  106.7450 C   0  0  0  0  0  0  0  0  0  0  0  0
  100.8110  101.8580  107.2130 C   0  0  0  0  0  0  0  0  0  0  0  0
   99.7690  100.1310  105.9440 F   0  0  0  0  0  0  0  0  0  0  0  0
   99.7660  102.8390  106.8690 C   0  0  0  0  0  0  0  0  0  0  0  0
   98.5500  102.8860  107.5730 C   0  0  0  0  0  0  0  0  0  0  0  0
   99.9560  103.7670  105.8300 C   0  0  0  0  0  0  0  0  0  0  0  0
   97.5630  103.8220  107.2530 C   0  0  0  0  0  0  0  0  0  0  0  0
   98.9690  104.7040  105.5070 C   0  0  0  0  0  0  0  0  0  0  0  0
   97.7730  104.7320  106.2190 C   0  0  0  0  0  0  0  0  0  0  0  0
  2  1  1  1  0  0  0
  3  2  1  0  0  0  0
  4  3  2  0  0  0  0
  5  3  1  0  0  0  0
  6  2  1  0  0  0  0
  6  7  1  0  0  0  0
  8  6  2  0  0  0  0
  9  7  2  0  0  0  0
 10  8  1  0  0  0  0
 10 11  2  0  0  0  0
 11  9  1  0  0  0  0
 12 10  1  0  0  0  0
 13 11  1  0  0  0  0
 13 14  1  0  0  0  0
 15 13  2  0  0  0  0
 16 14  2  0  0  0  0
 17 15  1  0  0  0  0
 17 18  2  0  0  0  0
 18 16  1  0  0  0  0
M  END
>  <minimizedAffinity>
-7.69059181

>  <CNNscore>
0.651790261

>  <CNNaffinity>
5.20303535

$$$$

 OpenBabel08282614493D

 18 19  0  0  1  0  0  0  0  0999 V2000
  103.2560   99.6070  109.2630 C   0  0  0  0  0  0  0  0  0  0  0  0
  103.0900   99.5590  107.7450 C   0  0  1  0  0  0  0  0  0  0  0  0
  102.5720   98.1870  107.2580 C   0  0  0  0  0  0  0  0  0  0  0  0
  102.1800   97.4080  108.1770 O   0  0  0  0  0  0  0  0  0  0  0  0
  102.5780   97.9960  106.0060 O   0  0  0  0  0  0  0  0  0  0  0  0
  102.1980  100.6900  107.2600 C   0  0  0  0  0  0  0  0  0  0  0  0
  100.9110  100.8830  107.7800 C   0  0  0  0  0  0  0  0  0  0  0  0
  102.6620  101.5850  106.2880 C   0  0  0  0  0  0  0  0  0  0  0  0
  100.1090  101.9420  107.3410 C   0  0  0  0  0  0  0  0  0  0  0  0
  101.8550  102.6390  105.8560 C   0  0  0  0  0  0  0  0  0  0  0  0
  100.5660  102.8470  106.3690 C   0  0  0  0  0  0  0  0  0  0  0  0
  102.3580  103.4760  104.9320 F   0  0  0  0  0  0  0  0  0  0  0  0
   99.7140  103.9610  105.9130 C   0  0  0  0  0  0  0  0  0  0  0  0
   98.3530  103.7670  105.6240 C   0  0  0  0  0  0  0  0  0  0  0  0
  100.2370  105.2570  105.7610 C   0  0  0  0  0  0  0  0  0  0  0  0
   97.5440  104.8250  105.2010 C   0  0  0  0  0  0  0  0  0  0  0  0
   99.4300  106.3180  105.3360 C   0  0  0  0  0  0  0  0  0  0  0  0
   98.0830  106.1010  105.0570 C   0  0  0  0  0  0  0  0  0  0  0  0
  2  1  1  1  0  0  0
  3  2  1  0  0  0  0
  3  4  1  0  0  0  0
  5  3  2  0  0  0  0
  6  2  1  0  0  0  0
  6  7  1  0  0  0  0
  8  6  2  0  0  0  0
  9  7  2  0  0  0  0
 10  8  1  0  0  0  0
 10 11  2  0  0  0  0
 11  9  1  0  0  0  0
 12 10  1  0  0  0  0
 13 11  1  0  0  0  0
 14 13  2  0  0  0  0
 15 13  1  0  0  0  0
 16 14  1  0  0  0  0
 17 15  2  0  0  0  0
 18 16  2  0  0  0  0
 18 17  1  0  0  0  0
M  END
>  <minimizedAffinity>
-7.94601774

>  <CNNscore>
0.580339789

>  <CNNaffinity>
5.16392136

$$$$

 OpenBabel08282614493D

 18 19  0  0  1  0  0  0  0  0999 V2000
  102.9580  101.2530  107.7540 C   0  0  0  0  0  0  0  0  0  0  0  0
  102.7340   99.8960  107.0880 C   0  0  1  0  0  0  0  0  0  0  0  0
  102.6360   98.7490  108.1190 C   0  0  0  0  0  0  0  0  0  0  0  0
  102.2310   97.6440  107.6500 O   0  0  0  0  0  0  0  0  0  0  0  0
  102.9850   99.0270  109.3040 O   0  0  0  0  0  0  0  0  0  0  0  0
  101.5150   99.9300  106.1810 C   0  0  0  0  0  0  0  0  0  0  0  0
  101.4260   99.1160  105.0440 C   0  0  0  0  0  0  0  0  0  0  0  0
  100.4370  100.7700  106.4830 C   0  0  0  0  0  0  0  0  0  0  0  0
  100.2880   99.1410  104.2290 C   0  0  0  0  0  0  0  0  0  0  0  0
   99.3050  100.7880  105.6650 C   0  0  0  0  0  0  0  0  0  0  0  0
   99.1990   99.9770  104.5250 C   0  0  0  0  0  0  0  0  0  0  0  0
   98.2940  101.6030  106.0110 F   0  0  0  0  0  0  0  0  0  0  0  0
   98.0040   99.9960  103.6610 C   0  0  0  0  0  0  0  0  0  0  0  0
   96.9100   99.1500  103.9130 C   0  0  0  0  0  0  0  0  0  0  0  0
   97.9170  100.8670  102.5620 C   0  0  0  0  0  0  0  0  0  0  0  0
   95.7740   99.1740  103.1000 C   0  0  0  0  0  0  0  0  0  0  0  0
   96.7820  100.8930  101.7460 C   0  0  0  0  0  0  0  0  0  0  0  0
   95.7100  100.0460  102.0160 C   0  0  0  0  0  0  0  0  0  0  0  0
  2  1  1  1  0  0  0
  2  3  1  0  0  0  0
  3  5  1  0  0  0  0
  4  3  2  0  0  0  0
  6  8  1  0  0  0  0
  6  2  1  0  0  0  0
  7  6  2  0  0  0  0
  9 11  2  0  0  0  0
  9  7  1  0  0  0  0
 10 12  1  0  0  0  0
 10  8  2  0  0  0  0
 11 10  1  0  0  0  0
 13 14  1  0  0  0  0
 13 11  1  0  0  0  0
 15 13  2  0  0  0  0
 16 14  2  0  0  0  0
 17 18  2  0  0  0  0
 17 15  1  0  0  0  0
 18 16  1  0  0  0  0
M  END
>  <minimizedAffinity>
-7.04496336

>  <CNNscore>
0.576450467

>  <CNNaffinity>
4.77746773

$$$$

 OpenBabel08282614493D

 18 19  0  0  1  0  0  0  0  0999 V2000
  103.2250   99.9440  108.4400 C   0  0  0  0  0  0  0  0  0  0  0  0
  102.5570   99.8670  107.0680 C   0  0  1  0  0  0  0  0  0  0  0  0
  102.2330   98.4130  106.6570 C   0  0  0  0  0  0  0  0  0  0  0  0
  101.9900   97.6280  107.6220 O   0  0  0  0  0  0  0  0  0  0  0  0
  102.2260   98.1680  105.4150 O   0  0  0  0  0  0  0  0  0  0  0  0
  101.3180  100.7460  107.0160 C   0  0  0  0  0  0  0  0  0  0  0  0
  100.2770  100.4910  106.1130 C   0  0  0  0  0  0  0  0  0  0  0  0
  101.1830  101.8250  107.8980 C   0  0  0  0  0  0  0  0  0  0  0  0
   99.1320  101.2950  106.0910 C   0  0  0  0  0  0  0  0  0  0  0  0
  100.0370  102.6210  107.8700 C   0  0  0  0  0  0  0  0  0  0  0  0
   98.9850  102.3780  106.9730 C   0  0  0  0  0  0  0  0  0  0  0  0
   99.9540  103.6340  108.7490 F   0  0  0  0  0  0  0  0  0  0  0  0
   97.7730  103.2180  106.9440 C   0  0  0  0  0  0  0  0  0  0  0  0
   96.5100  102.6860  107.2510 C   0  0  0  0  0  0  0  0  0  0  0  0
   97.8460  104.5820  106.6150 C   0  0  0  0  0  0  0  0  0  0  0  0
   95.3630  103.4840  107.2320 C   0  0  0  0  0  0  0  0  0  0  0  0
   96.7000  105.3840  106.5940 C   0  0  0  0  0  0  0  0  0  0  0  0
   95.4590  104.8350  106.9030 C   0  0  0  0  0  0  0  0  0  0  0  0
  2  1  1  1  0  0  0
  3  2  1  0  0  0  0
  3  4  1  0  0  0  0
  5  3  2  0  0  0  0
  6  2  1  0  0  0  0
  6  8  1  0  0  0  0
  7  6  2  0  0  0  0
  9  7  1  0  0  0  0
  9 11  2  0  0  0  0
 10  8  2  0  0  0  0
 10 12  1  0  0  0  0
 11 10  1  0  0  0  0
 13 11  1  0  0  0  0
 13 14  1  0  0  0  0
 15 13  2  0  0  0  0
 16 14  2  0  0  0  0
 17 15  1  0  0  0  0
 17 18  2  0  0  0  0
 18 16  1  0  0  0  0
M  END
>  <minimizedAffinity>
-7.89023066

>  <CNNscore>
0.570949078

>  <CNNaffinity>
5.1380477

$$$$

 OpenBabel08282614493D

 18 19  0  0  1  0  0  0  0  0999 V2000
  103.1620   99.7720  108.1900 C   0  0  0  0  0  0  0  0  0  0  0  0
  102.5690   99.9570  106.7930 C   0  0  1  0  0  0  0  0  0  0  0  0
  102.3180   98.6090  106.0820 C   0  0  0  0  0  0  0  0  0  0  0  0
  101.5680   98.6750  105.0630 O   0  0  0  0  0  0  0  0  0  0  0  0
  102.8960   97.5970  106.5760 O   0  0  0  0  0  0  0  0  0  0  0  0
  101.3040  100.7990  106.8470 C   0  0  0  0  0  0  0  0  0  0  0  0
  101.1210  101.7840  107.8270 C   0  0  0  0  0  0  0  0  0  0  0  0
  100.2970  100.6170  105.8920 C   0  0  0  0  0  0  0  0  0  0  0  0
   99.9610  102.5660  107.8520 C   0  0  0  0  0  0  0  0  0  0  0  0
   99.1440  101.4030  105.9240 C   0  0  0  0  0  0  0  0  0  0  0  0
   98.9460  102.3950  106.8970 C   0  0  0  0  0  0  0  0  0  0  0  0
   98.2160  101.1950  104.9730 F   0  0  0  0  0  0  0  0  0  0  0  0
   97.7280  103.2250  106.9290 C   0  0  0  0  0  0  0  0  0  0  0  0
   97.7710  104.5930  106.6120 C   0  0  0  0  0  0  0  0  0  0  0  0
   96.4830  102.6710  107.2720 C   0  0  0  0  0  0  0  0  0  0  0  0
   96.6150  105.3780  106.6350 C   0  0  0  0  0  0  0  0  0  0  0  0
   95.3240  103.4550  107.2960 C   0  0  0  0  0  0  0  0  0  0  0  0
   95.3910  104.8080  106.9770 C   0  0  0  0  0  0  0  0  0  0  0  0
  2  6  1  0  0  0  0
  2  1  1  1  0  0  0
  3  5  1  0  0  0  0
  3  2  1  0  0  0  0
  4  3  2  0  0  0  0
  6  7  1  0  0  0  0
  7  9  2  0  0  0  0
  8 10  1  0  0  0  0
  8  6  2  0  0  0  0
 10 11  2  0  0  0  0
 11 13  1  0  0  0  0
 11  9  1  0  0  0  0
 12 10  1  0  0  0  0
 13 15  1  0  0  0  0
 14 16  1  0  0  0  0
 14 13  2  0  0  0  0
 15 17  2  0  0  0  0
 16 18  2  0  0  0  0
 18 17  1  0  0  0  0
M  END
>  <minimizedAffinity>
-7.97484589

>  <CNNscore>
0.569989204

>  <CNNaffinity>
5.14399576

$$$$

 OpenBabel08282614493D

 18 19  0  0  1  0  0  0  0  0999 V2000
  101.2340   98.9440  104.3450 C   0  0  0  0  0  0  0  0  0  0  0  0
  101.2180   99.3200  105.8260 C   0  0  1  0  0  0  0  0  0  0  0  0
  102.5250   98.9170  106.5450 C   0  0  0  0  0  0  0  0  0  0  0  0
  102.8900   97.7180  106.3560 O   0  0  0  0  0  0  0  0  0  0  0  0
  103.0950   99.8220  107.2220 O   0  0  0  0  0  0  0  0  0  0  0  0
  100.9200  100.8000  106.0080 C   0  0  0  0  0  0  0  0  0  0  0  0
  101.4040  101.7590  105.1090 C   0  0  0  0  0  0  0  0  0  0  0  0
  100.1280  101.2310  107.0770 C   0  0  0  0  0  0  0  0  0  0  0  0
  101.1040  103.1160  105.2750 C   0  0  0  0  0  0  0  0  0  0  0  0
   99.8320  102.5870  107.2350 C   0  0  0  0  0  0  0  0  0  0  0  0
  100.3070  103.5600  106.3430 C   0  0  0  0  0  0  0  0  0  0  0  0
   99.0540  102.9430  108.2720 F   0  0  0  0  0  0  0  0  0  0  0  0
   99.9950  104.9910  106.5090 C   0  0  0  0  0  0  0  0  0  0  0  0
   99.2240  105.4480  107.5920 C   0  0  0  0  0  0  0  0  0  0  0  0
  100.4650  105.9470  105.5930 C   0  0  0  0  0  0  0  0  0  0  0  0
   98.9360  106.8050  107.7550 C   0  0  0  0  0  0  0  0  0  0  0  0
  100.1770  107.3070  105.7520 C   0  0  0  0  0  0  0  0  0  0  0  0
   99.4130  107.7350  106.8340 C   0  0  0  0  0  0  0  0  0  0  0  0
  2  1  1  6  0  0  0
  2  6  1  0  0  0  0
  2  3  1  0  0  0  0
  3  5  1  0  0  0  0
  4  3  2  0  0  0  0
  6  8  1  0  0  0  0
  7  9  1  0  0  0  0
  7  6  2  0  0  0  0
  8 10  2  0  0  0  0
  9 11  2  0  0  0  0
 10 12  1  0  0  0  0
 11 13  1  0  0  0  0
 11 10  1  0  0  0  0
 13 14  1  0  0  0  0
 14 16  2  0  0  0  0
 15 17  1  0  0  0  0
 15 13  2  0  0  0  0
 17 18  2  0  0  0  0
 18 16  1  0  0  0  0
M  END
>  <minimizedAffinity>
-7.88514233

>  <CNNscore>
0.552318215

>  <CNNaffinity>
4.95410204

$$$$

 OpenBabel08282614493D

 18 19  0  0  1  0  0  0  0  0999 V2000
  102.8020  100.6280  108.2600 C   0  0  0  0  0  0  0  0  0  0  0  0
  102.7160   99.7830  106.9900 C   0  0  1  0  0  0  0  0  0  0  0  0
  102.8280   98.2700  107.2870 C   0  0  0  0  0  0  0  0  0  0  0  0
  102.4910   97.9310  108.4600 O   0  0  0  0  0  0  0  0  0  0  0  0
  103.2210   97.5380  106.3310 O   0  0  0  0  0  0  0  0  0  0  0  0
  101.4520  100.1020  106.2090 C   0  0  0  0  0  0  0  0  0  0  0  0
  101.2480   99.6080  104.9140 C   0  0  0  0  0  0  0  0  0  0  0  0
  100.4470  100.8860  106.7870 C   0  0  0  0  0  0  0  0  0  0  0  0
  100.0690   99.8910  104.2140 C   0  0  0  0  0  0  0  0  0  0  0  0
   99.2740  101.1620  106.0820 C   0  0  0  0  0  0  0  0  0  0  0  0
   99.0530  100.6730  104.7850 C   0  0  0  0  0  0  0  0  0  0  0  0
   98.3360  101.9080  106.6920 F   0  0  0  0  0  0  0  0  0  0  0  0
   97.8140  100.9650  104.0410 C   0  0  0  0  0  0  0  0  0  0  0  0
   97.8280  101.1570  102.6500 C   0  0  0  0  0  0  0  0  0  0  0  0
   96.5760  101.0510  104.7010 C   0  0  0  0  0  0  0  0  0  0  0  0
   96.6520  101.4250  101.9430 C   0  0  0  0  0  0  0  0  0  0  0  0
   95.3970  101.3200  103.9970 C   0  0  0  0  0  0  0  0  0  0  0  0
   95.4360  101.5070  102.6180 C   0  0  0  0  0  0  0  0  0  0  0  0
  2  3  1  0  0  0  0
  2  1  1  1  0  0  0
  3  4  1  0  0  0  0
  5  3  2  0  0  0  0
  6  8  1  0  0  0  0
  6  2  1  0  0  0  0
  7  6  2  0  0  0  0
  9 11  2  0  0  0  0
  9  7  1  0  0  0  0
 10 12  1  0  0  0  0
 10  8  2  0  0  0  0
 11 10  1  0  0  0  0
 13 15  1  0  0  0  0
 13 11  1  0  0  0  0
 14 13  2  0  0  0  0
 16 18  2  0  0  0  0
 16 14  1  0  0  0  0
 17 15  2  0  0  0  0
 18 17  1  0  0  0  0
M  END
>  <minimizedAffinity>
-6.75871992

>  <CNNscore>
0.544732749

>  <CNNaffinity>
4.89313364

$$$$
