
 OpenBabel08282609073D

 29 31  0  0  0  0  0  0  0  0999 V2000
  100.0400  105.0460  105.6430 C   0  0  0  0  0  0  0  0  0  0  0  0
   99.7970  106.4970  105.2210 C   0  0  0  0  0  0  0  0  0  0  0  0
   99.7080  107.4680  106.4010 C   0  0  0  0  0  0  0  0  0  0  0  0
  100.5380  108.7480  106.2720 C   0  0  0  0  0  0  0  0  0  0  0  0
   99.7530  110.0150  106.5720 C   0  0  0  0  0  0  0  0  0  0  0  0
   98.7200  104.3260  105.9320 C   0  0  0  0  0  0  0  0  0  0  0  0
   98.6610  102.9750  105.2570 C   0  0  0  0  0  0  0  0  0  0  0  0
   97.7250  102.7570  104.2320 C   0  0  0  0  0  0  0  0  0  0  0  0
   99.5400  101.9350  105.6130 C   0  0  0  0  0  0  0  0  0  0  0  0
   97.6660  101.5180  103.5820 C   0  0  0  0  0  0  0  0  0  0  0  0
  100.4440  102.1970  106.6160 O   0  0  0  0  0  0  0  0  0  0  0  0
   99.4700  100.7060  104.9550 C   0  0  0  0  0  0  0  0  0  0  0  0
   98.5390  100.4900  103.9330 C   0  0  0  0  0  0  0  0  0  0  0  0
  101.3160  101.2070  106.9930 C   0  0  0  0  0  0  0  0  0  0  0  0
  100.3870   99.6270  105.3540 C   0  0  0  0  0  0  0  0  0  0  0  0
  102.2100  101.5310  108.0110 C   0  0  0  0  0  0  0  0  0  0  0  0
  101.3460   99.9340  106.4260 C   0  0  0  0  0  0  0  0  0  0  0  0
  100.3250   98.5330  104.8090 O   0  0  0  0  0  0  0  0  0  0  0  0
  103.1270  100.5800  108.4610 C   0  0  0  0  0  0  0  0  0  0  0  0
  102.2620   98.9770  106.8730 C   0  0  0  0  0  0  0  0  0  0  0  0
  103.1690   99.2910  107.9020 C   0  0  0  0  0  0  0  0  0  0  0  0
   96.4600  101.2530  102.2990 S   0  0  2  0  0  0  0  0  0  0  0  0
   97.1280  100.3110  101.2820 N   0  0  0  0  0  0  0  0  0  0  0  0
   95.9220  102.5560  101.9560 O   0  0  0  0  0  0  0  0  0  0  0  0
   95.1540  100.3670  103.1100 C   0  0  0  0  0  0  0  0  0  0  0  0
   97.9400  100.7570  100.8500 H   0  0  0  0  0  0  0  0  0  0  0  0
  104.1690   98.2660  108.4030 C   0  0  0  0  0  0  0  0  0  0  0  0
  105.3800   98.4200  108.0560 O   0  0  0  0  0  0  0  0  0  0  0  0
  103.7120   97.3300  109.1320 O   0  0  0  0  0  0  0  0  0  0  0  0
  1  6  1  0  0  0  0
  2  1  1  0  0  0  0
  2  3  1  0  0  0  0
  4  3  1  0  0  0  0
  4  5  1  0  0  0  0
  7  9  1  0  0  0  0
  7  6  1  0  0  0  0
  8  7  2  0  0  0  0
  9 11  1  0  0  0  0
 10 13  2  0  0  0  0
 10  8  1  0  0  0  0
 11 14  1  0  0  0  0
 12 15  1  0  0  0  0
 12  9  2  0  0  0  0
 13 12  1  0  0  0  0
 14 16  1  0  0  0  0
 15 17  1  0  0  0  0
 16 19  2  0  0  0  0
 17 20  1  0  0  0  0
 17 14  2  0  0  0  0
 18 15  2  0  0  0  0
 20 21  2  0  0  0  0
 21 27  1  0  0  0  0
 21 19  1  0  0  0  0
 22 25  1  1  0  0  0
 22 10  1  0  0  0  0
 23 22  1  0  0  0  0
 24 22  1  0  0  0  0
 26 23  1  0  0  0  0
 27 29  1  0  0  0  0
 28 27  2  0  0  0  0
M  END
>  <minimizedAffinity>
-9.38825798

>  <CNNscore>
0.699194789

>  <CNNaffinity>
6.7529664

$$$$

 OpenBabel08282609073D

 29 31  0  0  0  0  0  0  0  0999 V2000
   98.9680  105.4880  105.0610 C   0  0  0  0  0  0  0  0  0  0  0  0
  100.4270  105.9470  105.0100 C   0  0  0  0  0  0  0  0  0  0  0  0
  101.3590  104.9410  104.3280 C   0  0  0  0  0  0  0  0  0  0  0  0
  102.7410  105.4730  103.9390 C   0  0  0  0  0  0  0  0  0  0  0  0
  103.1760  105.0710  102.5390 C   0  0  0  0  0  0  0  0  0  0  0  0
   98.7820  104.3530  106.0710 C   0  0  0  0  0  0  0  0  0  0  0  0
   98.6960  103.0060  105.3890 C   0  0  0  0  0  0  0  0  0  0  0  0
   97.7390  102.8060  104.3800 C   0  0  0  0  0  0  0  0  0  0  0  0
   99.5690  101.9550  105.7230 C   0  0  0  0  0  0  0  0  0  0  0  0
   97.6540  101.5720  103.7240 C   0  0  0  0  0  0  0  0  0  0  0  0
  100.4940  102.2000  106.7100 O   0  0  0  0  0  0  0  0  0  0  0  0
   99.4730  100.7310  105.0580 C   0  0  0  0  0  0  0  0  0  0  0  0
   98.5220  100.5320  104.0520 C   0  0  0  0  0  0  0  0  0  0  0  0
  101.3610  101.1980  107.0660 C   0  0  0  0  0  0  0  0  0  0  0  0
  100.3850   99.6390  105.4340 C   0  0  0  0  0  0  0  0  0  0  0  0
  102.2760  101.5060  108.0700 C   0  0  0  0  0  0  0  0  0  0  0  0
  101.3670   99.9280  106.4910 C   0  0  0  0  0  0  0  0  0  0  0  0
  100.3000   98.5490  104.8830 O   0  0  0  0  0  0  0  0  0  0  0  0
  103.1910  100.5420  108.4970 C   0  0  0  0  0  0  0  0  0  0  0  0
  102.2800   98.9590  106.9150 C   0  0  0  0  0  0  0  0  0  0  0  0
  103.2090   99.2560  107.9290 C   0  0  0  0  0  0  0  0  0  0  0  0
   96.4220  101.3280  102.4610 S   0  0  2  0  0  0  0  0  0  0  0  0
   97.0090  100.2820  101.4960 N   0  0  0  0  0  0  0  0  0  0  0  0
   95.9840  102.6470  102.0450 O   0  0  0  0  0  0  0  0  0  0  0  0
   95.0580  100.5920  103.3240 C   0  0  0  0  0  0  0  0  0  0  0  0
   97.8500  100.6380  101.0380 H   0  0  0  0  0  0  0  0  0  0  0  0
  104.2050   98.2160  108.4060 C   0  0  0  0  0  0  0  0  0  0  0  0
  103.7660   97.2990  109.1650 O   0  0  0  0  0  0  0  0  0  0  0  0
  105.4050   98.3470  108.0060 O   0  0  0  0  0  0  0  0  0  0  0  0
  1  6  1  0  0  0  0
  2  1  1  0  0  0  0
  3  2  1  0  0  0  0
  4  3  1  0  0  0  0
  5  4  1  0  0  0  0
  7  9  1  0  0  0  0
  7  6  1  0  0  0  0
  8  7  2  0  0  0  0
  9 11  1  0  0  0  0
 10 13  2  0  0  0  0
 10  8  1  0  0  0  0
 11 14  1  0  0  0  0
 12 15  1  0  0  0  0
 12  9  2  0  0  0  0
 13 12  1  0  0  0  0
 14 16  1  0  0  0  0
 15 17  1  0  0  0  0
 16 19  2  0  0  0  0
 17 20  1  0  0  0  0
 17 14  2  0  0  0  0
 18 15  2  0  0  0  0
 20 21  2  0  0  0  0
 21 27  1  0  0  0  0
 21 19  1  0  0  0  0
 22 25  1  1  0  0  0
 22 10  1  0  0  0  0
 23 22  1  0  0  0  0
 24 22  1  0  0  0  0
 26 23  1  0  0  0  0
 27 28  1  0  0  0  0
 29 27  2  0  0  0  0
M  END
>  <minimizedAffinity>
-8.73521709

>  <CNNscore>
0.688843012

>  <CNNaffinity>
6.72107172

$$$$

 OpenBabel08282609073D

 29 31  0  0  0  0  0  0  0  0999 V2000
   99.1850  104.4160  107.6180 C   0  0  0  0  0  0  0  0  0  0  0  0
   98.3870  105.7210  107.5900 C   0  0  0  0  0  0  0  0  0  0  0  0
   99.2650  106.9730  107.6770 C   0  0  0  0  0  0  0  0  0  0  0  0
   99.8680  107.4550  106.3550 C   0  0  0  0  0  0  0  0  0  0  0  0
  100.2110  108.9360  106.3460 C   0  0  0  0  0  0  0  0  0  0  0  0
   98.2680  103.2130  107.8550 C   0  0  0  0  0  0  0  0  0  0  0  0
   98.3520  102.2150  106.7220 C   0  0  0  0  0  0  0  0  0  0  0  0
   97.3490  102.2050  105.7380 C   0  0  0  0  0  0  0  0  0  0  0  0
   99.4250  101.3110  106.6150 C   0  0  0  0  0  0  0  0  0  0  0  0
   97.4160  101.3010  104.6710 C   0  0  0  0  0  0  0  0  0  0  0  0
  100.3860  101.3630  107.5970 O   0  0  0  0  0  0  0  0  0  0  0  0
   99.4790  100.4170  105.5450 C   0  0  0  0  0  0  0  0  0  0  0  0
   98.4810  100.4080  104.5640 C   0  0  0  0  0  0  0  0  0  0  0  0
  101.4470  100.4950  107.5280 C   0  0  0  0  0  0  0  0  0  0  0  0
  100.6000   99.4680  105.4600 C   0  0  0  0  0  0  0  0  0  0  0  0
  102.3890  100.5960  108.5490 C   0  0  0  0  0  0  0  0  0  0  0  0
  101.6170   99.5470  106.5210 C   0  0  0  0  0  0  0  0  0  0  0  0
  100.6540   98.6570  104.5450 O   0  0  0  0  0  0  0  0  0  0  0  0
  103.4960   99.7470  108.5600 C   0  0  0  0  0  0  0  0  0  0  0  0
  102.7240   98.6930  106.5270 C   0  0  0  0  0  0  0  0  0  0  0  0
  103.6820   98.7830  107.5530 C   0  0  0  0  0  0  0  0  0  0  0  0
   96.1260  101.2880  103.4440 S   0  0  2  0  0  0  0  0  0  0  0  0
   94.8590  100.8040  104.1700 N   0  0  0  0  0  0  0  0  0  0  0  0
   96.6760  100.6370  102.2680 O   0  0  0  0  0  0  0  0  0  0  0  0
   95.9130  102.9970  103.0210 C   0  0  0  0  0  0  0  0  0  0  0  0
   94.9720   99.8450  104.5050 H   0  0  0  0  0  0  0  0  0  0  0  0
  104.8880   97.8630  107.5790 C   0  0  0  0  0  0  0  0  0  0  0  0
  104.9610   96.9780  106.6720 O   0  0  0  0  0  0  0  0  0  0  0  0
  105.7320   98.0520  108.5110 O   0  0  0  0  0  0  0  0  0  0  0  0
  1  6  1  0  0  0  0
  2  1  1  0  0  0  0
  2  3  1  0  0  0  0
  4  3  1  0  0  0  0
  5  4  1  0  0  0  0
  7  6  1  0  0  0  0
  8  7  2  0  0  0  0
  9  7  1  0  0  0  0
  9 11  1  0  0  0  0
 10  8  1  0  0  0  0
 12  9  2  0  0  0  0
 13 10  2  0  0  0  0
 13 12  1  0  0  0  0
 14 11  1  0  0  0  0
 14 16  1  0  0  0  0
 15 12  1  0  0  0  0
 15 17  1  0  0  0  0
 16 19  2  0  0  0  0
 17 20  1  0  0  0  0
 17 14  2  0  0  0  0
 18 15  2  0  0  0  0
 20 21  2  0  0  0  0
 21 27  1  0  0  0  0
 21 19  1  0  0  0  0
 22 25  1  6  0  0  0
 22 23  1  0  0  0  0
 22 10  1  0  0  0  0
 23 26  1  0  0  0  0
 24 22  1  0  0  0  0
 27 29  1  0  0  0  0
 28 27  2  0  0  0  0
M  END
>  <minimizedAffinity>
-9.27452183

>  <CNNscore>
0.652990758

>  <CNNaffinity>
6.93901682

$$$$

 OpenBabel08282609073D

 29 31  0  0  0  0  0  0  0  0999 V2000
   99.4050  103.8420  107.7110 C   0  0  0  0  0  0  0  0  0  0  0  0
   99.0760  104.9850  108.6740 C   0  0  0  0  0  0  0  0  0  0  0  0
   98.7500  106.3040  107.9660 C   0  0  0  0  0  0  0  0  0  0  0  0
   99.4050  106.5020  106.5960 C   0  0  0  0  0  0  0  0  0  0  0  0
   99.9400  107.9070  106.3750 C   0  0  0  0  0  0  0  0  0  0  0  0
   98.1680  102.9860  107.4280 C   0  0  0  0  0  0  0  0  0  0  0  0
   98.4110  102.0060  106.3030 C   0  0  0  0  0  0  0  0  0  0  0  0
   97.5260  101.9770  105.2110 C   0  0  0  0  0  0  0  0  0  0  0  0
   99.5190  101.1390  106.3090 C   0  0  0  0  0  0  0  0  0  0  0  0
   97.7440  101.0900  104.1510 C   0  0  0  0  0  0  0  0  0  0  0  0
  100.3620  101.2080  107.3930 O   0  0  0  0  0  0  0  0  0  0  0  0
   99.7230  100.2610  105.2430 C   0  0  0  0  0  0  0  0  0  0  0  0
   98.8430  100.2330  104.1560 C   0  0  0  0  0  0  0  0  0  0  0  0
  101.4520  100.3760  107.4360 C   0  0  0  0  0  0  0  0  0  0  0  0
  100.8780   99.3500  105.2770 C   0  0  0  0  0  0  0  0  0  0  0  0
  102.2700  100.4940  108.5580 C   0  0  0  0  0  0  0  0  0  0  0  0
  101.7660   99.4470  106.4460 C   0  0  0  0  0  0  0  0  0  0  0  0
  101.0610   98.5530  104.3660 O   0  0  0  0  0  0  0  0  0  0  0  0
  103.3960   99.6800  108.6860 C   0  0  0  0  0  0  0  0  0  0  0  0
  102.8930   98.6290  106.5690 C   0  0  0  0  0  0  0  0  0  0  0  0
  103.7270   98.7370  107.6970 C   0  0  0  0  0  0  0  0  0  0  0  0
   96.6010  101.0510  102.7850 S   0  0  2  0  0  0  0  0  0  0  0  0
   97.1990  100.0670  101.7640 N   0  0  0  0  0  0  0  0  0  0  0  0
   96.2760  102.4310  102.4750 O   0  0  0  0  0  0  0  0  0  0  0  0
   95.1330  100.3280  103.4700 C   0  0  0  0  0  0  0  0  0  0  0  0
   98.0920  100.4090  101.4060 H   0  0  0  0  0  0  0  0  0  0  0  0
  104.9520   97.8560  107.8500 C   0  0  0  0  0  0  0  0  0  0  0  0
  105.7270   98.1070  108.8240 O   0  0  0  0  0  0  0  0  0  0  0  0
  105.1060   96.9330  106.9890 O   0  0  0  0  0  0  0  0  0  0  0  0
  1  2  1  0  0  0  0
  3  2  1  0  0  0  0
  4  3  1  0  0  0  0
  5  4  1  0  0  0  0
  6  1  1  0  0  0  0
  7  9  1  0  0  0  0
  7  6  1  0  0  0  0
  8  7  2  0  0  0  0
  9 11  1  0  0  0  0
 10 13  2  0  0  0  0
 10  8  1  0  0  0  0
 11 14  1  0  0  0  0
 12 15  1  0  0  0  0
 12  9  2  0  0  0  0
 13 12  1  0  0  0  0
 14 16  1  0  0  0  0
 15 17  1  0  0  0  0
 16 19  2  0  0  0  0
 17 20  1  0  0  0  0
 17 14  2  0  0  0  0
 18 15  2  0  0  0  0
 20 21  2  0  0  0  0
 21 27  1  0  0  0  0
 21 19  1  0  0  0  0
 22 25  1  1  0  0  0
 22 10  1  0  0  0  0
 23 22  1  0  0  0  0
 24 22  1  0  0  0  0
 26 23  1  0  0  0  0
 27 28  1  0  0  0  0
 29 27  2  0  0  0  0
M  END
>  <minimizedAffinity>
-9.38313389

>  <CNNscore>
0.64724791

>  <CNNaffinity>
7.00807333

$$$$

 OpenBabel08282609073D

 29 31  0  0  0  0  0  0  0  0999 V2000
   97.2190  105.1750  105.8700 C   0  0  0  0  0  0  0  0  0  0  0  0
   97.2530  105.5880  107.3430 C   0  0  0  0  0  0  0  0  0  0  0  0
   98.6270  105.4100  107.9940 C   0  0  0  0  0  0  0  0  0  0  0  0
   98.7740  104.1950  108.9140 C   0  0  0  0  0  0  0  0  0  0  0  0
   97.6290  103.2020  108.7990 C   0  0  0  0  0  0  0  0  0  0  0  0
   98.5420  104.5320  105.4460 C   0  0  0  0  0  0  0  0  0  0  0  0
   98.3500  103.1040  104.9910 C   0  0  0  0  0  0  0  0  0  0  0  0
   97.2990  102.7970  104.1090 C   0  0  0  0  0  0  0  0  0  0  0  0
   99.2140  102.0750  105.4090 C   0  0  0  0  0  0  0  0  0  0  0  0
   97.1140  101.4840  103.6620 C   0  0  0  0  0  0  0  0  0  0  0  0
  100.2320  102.4240  106.2650 O   0  0  0  0  0  0  0  0  0  0  0  0
   99.0180  100.7710  104.9530 C   0  0  0  0  0  0  0  0  0  0  0  0
   97.9730  100.4660  104.0740 C   0  0  0  0  0  0  0  0  0  0  0  0
  101.0940  101.4470  106.6970 C   0  0  0  0  0  0  0  0  0  0  0  0
   99.9230   99.7070  105.4150 C   0  0  0  0  0  0  0  0  0  0  0  0
  102.1060  101.8610  107.5600 C   0  0  0  0  0  0  0  0  0  0  0  0
  101.0050  100.1070  106.3280 C   0  0  0  0  0  0  0  0  0  0  0  0
   99.7530   98.5510  105.0490 O   0  0  0  0  0  0  0  0  0  0  0  0
  103.0230  100.9310  108.0530 C   0  0  0  0  0  0  0  0  0  0  0  0
  101.9210   99.1710  106.8190 C   0  0  0  0  0  0  0  0  0  0  0  0
  102.9470   99.5740  107.6930 C   0  0  0  0  0  0  0  0  0  0  0  0
   95.7650  101.1090  102.5610 S   0  0  2  0  0  0  0  0  0  0  0  0
   94.5380  100.8810  103.4620 N   0  0  0  0  0  0  0  0  0  0  0  0
   96.2600  100.1260  101.6150 O   0  0  0  0  0  0  0  0  0  0  0  0
   95.5220  102.6100  101.6490 C   0  0  0  0  0  0  0  0  0  0  0  0
   94.6740  100.0690  104.0670 H   0  0  0  0  0  0  0  0  0  0  0  0
  103.9470   98.5740  108.2390 C   0  0  0  0  0  0  0  0  0  0  0  0
  103.4800   97.5580  108.8400 O   0  0  0  0  0  0  0  0  0  0  0  0
  105.1780   98.8330  108.0510 O   0  0  0  0  0  0  0  0  0  0  0  0
  1  2  1  0  0  0  0
  2  3  1  0  0  0  0
  3  4  1  0  0  0  0
  5  4  1  0  0  0  0
  6  1  1  0  0  0  0
  7  9  1  0  0  0  0
  7  6  1  0  0  0  0
  8  7  2  0  0  0  0
  9 11  1  0  0  0  0
 10 13  2  0  0  0  0
 10  8  1  0  0  0  0
 11 14  1  0  0  0  0
 12  9  2  0  0  0  0
 12 15  1  0  0  0  0
 13 12  1  0  0  0  0
 14 16  1  0  0  0  0
 15 17  1  0  0  0  0
 16 19  2  0  0  0  0
 17 14  2  0  0  0  0
 17 20  1  0  0  0  0
 18 15  2  0  0  0  0
 20 21  2  0  0  0  0
 21 19  1  0  0  0  0
 21 27  1  0  0  0  0
 22 25  1  6  0  0  0
 22 23  1  0  0  0  0
 22 10  1  0  0  0  0
 23 26  1  0  0  0  0
 24 22  1  0  0  0  0
 27 28  1  0  0  0  0
 29 27  2  0  0  0  0
M  END
>  <minimizedAffinity>
-8.70747662

>  <CNNscore>
0.643508971

>  <CNNaffinity>
6.72132874

$$$$

 OpenBabel08282609073D

 29 31  0  0  0  0  0  0  0  0999 V2000
   97.1570  103.3720  107.3980 C   0  0  0  0  0  0  0  0  0  0  0  0
   97.8900  103.3790  108.7410 C   0  0  0  0  0  0  0  0  0  0  0  0
   99.1550  104.2430  108.7410 C   0  0  0  0  0  0  0  0  0  0  0  0
   98.9640  105.7000  109.1700 C   0  0  0  0  0  0  0  0  0  0  0  0
   98.8950  106.6740  108.0040 C   0  0  0  0  0  0  0  0  0  0  0  0
   98.1290  103.6010  106.2370 C   0  0  0  0  0  0  0  0  0  0  0  0
   98.2840  102.3620  105.3850 C   0  0  0  0  0  0  0  0  0  0  0  0
   97.3990  102.1460  104.3160 C   0  0  0  0  0  0  0  0  0  0  0  0
   99.3120  101.4300  105.6220 C   0  0  0  0  0  0  0  0  0  0  0  0
   97.5360  101.0140  103.5040 C   0  0  0  0  0  0  0  0  0  0  0  0
  100.1590  101.6870  106.6740 O   0  0  0  0  0  0  0  0  0  0  0  0
   99.4360  100.3070  104.8020 C   0  0  0  0  0  0  0  0  0  0  0  0
   98.5560  100.0930  103.7360 C   0  0  0  0  0  0  0  0  0  0  0  0
  101.1720  100.7990  106.9370 C   0  0  0  0  0  0  0  0  0  0  0  0
  100.5070   99.3360  105.0760 C   0  0  0  0  0  0  0  0  0  0  0  0
  101.9980  101.1140  108.0130 C   0  0  0  0  0  0  0  0  0  0  0  0
  101.4020   99.6360  106.2050 C   0  0  0  0  0  0  0  0  0  0  0  0
  100.6180   98.3300  104.3870 O   0  0  0  0  0  0  0  0  0  0  0  0
  103.0500  100.2620  108.3550 C   0  0  0  0  0  0  0  0  0  0  0  0
  102.4530   98.7780  106.5440 C   0  0  0  0  0  0  0  0  0  0  0  0
  103.2940   99.0830  107.6290 C   0  0  0  0  0  0  0  0  0  0  0  0
   96.3920  100.7450  102.1660 S   0  0  2  0  0  0  0  0  0  0  0  0
   95.2710   99.8620  102.7410 N   0  0  0  0  0  0  0  0  0  0  0  0
   97.1850  100.3820  101.0060 O   0  0  0  0  0  0  0  0  0  0  0  0
   95.7250  102.3550  101.8370 C   0  0  0  0  0  0  0  0  0  0  0  0
   95.6330   98.9490  103.0220 H   0  0  0  0  0  0  0  0  0  0  0  0
  104.4380   98.1640  108.0130 C   0  0  0  0  0  0  0  0  0  0  0  0
  104.8650   97.3660  107.1220 O   0  0  0  0  0  0  0  0  0  0  0  0
  104.8790   98.2640  109.2020 O   0  0  0  0  0  0  0  0  0  0  0  0
  1  2  1  0  0  0  0
  2  3  1  0  0  0  0
  3  4  1  0  0  0  0
  5  4  1  0  0  0  0
  6  1  1  0  0  0  0
  7  9  1  0  0  0  0
  7  6  1  0  0  0  0
  8  7  2  0  0  0  0
  9 11  1  0  0  0  0
 10 13  2  0  0  0  0
 10  8  1  0  0  0  0
 11 14  1  0  0  0  0
 12 15  1  0  0  0  0
 12  9  2  0  0  0  0
 13 12  1  0  0  0  0
 14 16  1  0  0  0  0
 15 17  1  0  0  0  0
 16 19  2  0  0  0  0
 17 20  1  0  0  0  0
 17 14  2  0  0  0  0
 18 15  2  0  0  0  0
 20 21  2  0  0  0  0
 21 27  1  0  0  0  0
 21 19  1  0  0  0  0
 22 25  1  6  0  0  0
 22 23  1  0  0  0  0
 22 10  1  0  0  0  0
 23 26  1  0  0  0  0
 24 22  1  0  0  0  0
 27 29  1  0  0  0  0
 28 27  2  0  0  0  0
M  END
>  <minimizedAffinity>
-9.18997002

>  <CNNscore>
0.580466688

>  <CNNaffinity>
6.9550643

$$$$

 OpenBabel08282609073D

 29 31  0  0  0  0  0  0  0  0999 V2000
   99.7790  104.7910  105.6740 C   0  0  0  0  0  0  0  0  0  0  0  0
   99.4160  106.2710  105.5280 C   0  0  0  0  0  0  0  0  0  0  0  0
   99.6970  107.0940  106.7880 C   0  0  0  0  0  0  0  0  0  0  0  0
   98.7460  106.8550  107.9630 C   0  0  0  0  0  0  0  0  0  0  0  0
   99.3250  105.9510  109.0400 C   0  0  0  0  0  0  0  0  0  0  0  0
   98.5300  103.9360  105.9030 C   0  0  0  0  0  0  0  0  0  0  0  0
   98.5930  102.6370  105.1330 C   0  0  0  0  0  0  0  0  0  0  0  0
   97.7040  102.4250  104.0650 C   0  0  0  0  0  0  0  0  0  0  0  0
   99.5390  101.6430  105.4430 C   0  0  0  0  0  0  0  0  0  0  0  0
   97.7580  101.2360  103.3280 C   0  0  0  0  0  0  0  0  0  0  0  0
  100.3940  101.8970  106.4900 O   0  0  0  0  0  0  0  0  0  0  0  0
   99.5810  100.4630  104.6980 C   0  0  0  0  0  0  0  0  0  0  0  0
   98.6970  100.2530  103.6330 C   0  0  0  0  0  0  0  0  0  0  0  0
  101.3280  100.9500  106.8240 C   0  0  0  0  0  0  0  0  0  0  0  0
  100.5670   99.4290  105.0490 C   0  0  0  0  0  0  0  0  0  0  0  0
  102.1660  101.2650  107.8910 C   0  0  0  0  0  0  0  0  0  0  0  0
  101.4710   99.7280  106.1700 C   0  0  0  0  0  0  0  0  0  0  0  0
  100.6040   98.3760  104.4260 O   0  0  0  0  0  0  0  0  0  0  0  0
  103.1420  100.3560  108.3020 C   0  0  0  0  0  0  0  0  0  0  0  0
  102.4460   98.8120  106.5780 C   0  0  0  0  0  0  0  0  0  0  0  0
  103.2980   99.1170  107.6550 C   0  0  0  0  0  0  0  0  0  0  0  0
   96.6100  100.9750  101.9920 S   0  0  2  0  0  0  0  0  0  0  0  0
   97.3730  100.1530  100.9370 N   0  0  0  0  0  0  0  0  0  0  0  0
   95.9920  102.2590  101.7160 O   0  0  0  0  0  0  0  0  0  0  0  0
   95.3480   99.9490  102.6990 C   0  0  0  0  0  0  0  0  0  0  0  0
   98.1630  100.6820  100.5630 H   0  0  0  0  0  0  0  0  0  0  0  0
  104.3590   98.1350  108.1140 C   0  0  0  0  0  0  0  0  0  0  0  0
  104.8800   97.3890  107.2290 O   0  0  0  0  0  0  0  0  0  0  0  0
  104.6440   98.1370  109.3540 O   0  0  0  0  0  0  0  0  0  0  0  0
  1  6  1  0  0  0  0
  2  1  1  0  0  0  0
  2  3  1  0  0  0  0
  3  4  1  0  0  0  0
  4  5  1  0  0  0  0
  7  9  1  0  0  0  0
  7  6  1  0  0  0  0
  8  7  2  0  0  0  0
  9 11  1  0  0  0  0
 10 13  2  0  0  0  0
 10  8  1  0  0  0  0
 11 14  1  0  0  0  0
 12 15  1  0  0  0  0
 12  9  2  0  0  0  0
 13 12  1  0  0  0  0
 14 16  1  0  0  0  0
 15 17  1  0  0  0  0
 16 19  2  0  0  0  0
 17 20  1  0  0  0  0
 17 14  2  0  0  0  0
 18 15  2  0  0  0  0
 20 21  2  0  0  0  0
 21 27  1  0  0  0  0
 21 19  1  0  0  0  0
 22 25  1  1  0  0  0
 22 10  1  0  0  0  0
 23 22  1  0  0  0  0
 24 22  1  0  0  0  0
 26 23  1  0  0  0  0
 27 29  1  0  0  0  0
 28 27  2  0  0  0  0
M  END
>  <minimizedAffinity>
-9.05735588

>  <CNNscore>
0.562044859

>  <CNNaffinity>
6.88850164

$$$$

 OpenBabel08282609073D

 29 31  0  0  0  0  0  0  0  0999 V2000
  101.0170   99.5700  103.1260 C   0  0  0  0  0  0  0  0  0  0  0  0
   99.7550   99.7850  102.2870 C   0  0  0  0  0  0  0  0  0  0  0  0
   98.4810   99.2630  102.9590 C   0  0  0  0  0  0  0  0  0  0  0  0
   97.3670  100.2930  103.1620 C   0  0  0  0  0  0  0  0  0  0  0  0
   96.8480  100.8910  101.8640 C   0  0  0  0  0  0  0  0  0  0  0  0
  100.7130   98.7520  104.3830 C   0  0  0  0  0  0  0  0  0  0  0  0
  101.4150   99.3120  105.5980 C   0  0  0  0  0  0  0  0  0  0  0  0
  102.5200   98.6270  106.1320 C   0  0  0  0  0  0  0  0  0  0  0  0
  101.0040  100.5180  106.1950 C   0  0  0  0  0  0  0  0  0  0  0  0
  103.1950   99.1380  107.2470 C   0  0  0  0  0  0  0  0  0  0  0  0
   99.9240  101.1570  105.6340 O   0  0  0  0  0  0  0  0  0  0  0  0
  101.6890  101.0160  107.3050 C   0  0  0  0  0  0  0  0  0  0  0  0
  102.7900  100.3350  107.8350 C   0  0  0  0  0  0  0  0  0  0  0  0
   99.4920  102.3350  106.1900 C   0  0  0  0  0  0  0  0  0  0  0  0
  101.2330  102.2700  107.9240 C   0  0  0  0  0  0  0  0  0  0  0  0
   98.3950  102.9370  105.5770 C   0  0  0  0  0  0  0  0  0  0  0  0
  100.0780  102.9350  107.3020 C   0  0  0  0  0  0  0  0  0  0  0  0
  101.8020  102.7110  108.9140 O   0  0  0  0  0  0  0  0  0  0  0  0
   97.8870  104.1340  106.0810 C   0  0  0  0  0  0  0  0  0  0  0  0
   99.5720  104.1350  107.8130 C   0  0  0  0  0  0  0  0  0  0  0  0
   98.4640  104.7520  107.2050 C   0  0  0  0  0  0  0  0  0  0  0  0
  104.5810   98.2470  107.9230 S   0  0  2  0  0  0  0  0  0  0  0  0
  105.6530   99.3070  108.2310 N   0  0  0  0  0  0  0  0  0  0  0  0
  104.8060   97.1060  107.0550 O   0  0  0  0  0  0  0  0  0  0  0  0
  103.9730   97.6010  109.4580 C   0  0  0  0  0  0  0  0  0  0  0  0
  105.9720   99.7650  107.3750 H   0  0  0  0  0  0  0  0  0  0  0  0
   97.8990  106.0520  107.7460 C   0  0  0  0  0  0  0  0  0  0  0  0
   98.7310  106.9220  108.1490 O   0  0  0  0  0  0  0  0  0  0  0  0
   96.6320  106.1670  107.7520 O   0  0  0  0  0  0  0  0  0  0  0  0
  1  6  1  0  0  0  0
  2  3  1  0  0  0  0
  2  1  1  0  0  0  0
  3  4  1  0  0  0  0
  5  4  1  0  0  0  0
  6  7  1  0  0  0  0
  7  8  2  0  0  0  0
  7  9  1  0  0  0  0
  8 10  1  0  0  0  0
  9 12  2  0  0  0  0
 10 13  2  0  0  0  0
 10 22  1  0  0  0  0
 11 14  1  0  0  0  0
 11  9  1  0  0  0  0
 12 13  1  0  0  0  0
 12 15  1  0  0  0  0
 14 17  1  0  0  0  0
 15 18  2  0  0  0  0
 16 19  1  0  0  0  0
 16 14  2  0  0  0  0
 17 20  2  0  0  0  0
 17 15  1  0  0  0  0
 19 21  2  0  0  0  0
 21 27  1  0  0  0  0
 21 20  1  0  0  0  0
 22 23  1  0  0  0  0
 22 25  1  1  0  0  0
 24 22  1  0  0  0  0
 26 23  1  0  0  0  0
 27 29  2  0  0  0  0
 27 28  1  0  0  0  0
M  END
>  <minimizedAffinity>
-7.84683704

>  <CNNscore>
0.534775496

>  <CNNaffinity>
7.31563139

$$$$

 OpenBabel08282609073D

 29 31  0  0  0  0  0  0  0  0999 V2000
  100.4070  104.0490  105.0480 C   0  0  0  0  0  0  0  0  0  0  0  0
  100.0740  104.3360  106.5140 C   0  0  0  0  0  0  0  0  0  0  0  0
   99.5600  105.7590  106.7550 C   0  0  0  0  0  0  0  0  0  0  0  0
  100.0420  106.8170  105.7590 C   0  0  0  0  0  0  0  0  0  0  0  0
  100.3930  108.1470  106.4060 C   0  0  0  0  0  0  0  0  0  0  0  0
  101.6790  103.2060  104.9250 C   0  0  0  0  0  0  0  0  0  0  0  0
  101.4250  101.7570  105.2720 C   0  0  0  0  0  0  0  0  0  0  0  0
  102.3330  101.0780  106.1010 C   0  0  0  0  0  0  0  0  0  0  0  0
  100.2850  101.0780  104.8030 C   0  0  0  0  0  0  0  0  0  0  0  0
  102.1070   99.7410  106.4480 C   0  0  0  0  0  0  0  0  0  0  0  0
   99.4210  101.7850  104.0010 O   0  0  0  0  0  0  0  0  0  0  0  0
  100.0730   99.7450  105.1600 C   0  0  0  0  0  0  0  0  0  0  0  0
  100.9760   99.0690  105.9870 C   0  0  0  0  0  0  0  0  0  0  0  0
   98.2990  101.1550  103.5230 C   0  0  0  0  0  0  0  0  0  0  0  0
   98.8840   99.0470  104.6460 C   0  0  0  0  0  0  0  0  0  0  0  0
   97.4610  101.9220  102.7180 C   0  0  0  0  0  0  0  0  0  0  0  0
   97.9740   99.8270  103.7930 C   0  0  0  0  0  0  0  0  0  0  0  0
   98.6920   97.8700  104.9230 O   0  0  0  0  0  0  0  0  0  0  0  0
   96.3020  101.3580  102.1830 C   0  0  0  0  0  0  0  0  0  0  0  0
   96.8140   99.2560  103.2600 C   0  0  0  0  0  0  0  0  0  0  0  0
   95.9590  100.0200  102.4440 C   0  0  0  0  0  0  0  0  0  0  0  0
  103.2780   98.8890  107.4840 S   0  0  2  0  0  0  0  0  0  0  0  0
  104.3030   99.9500  107.9210 N   0  0  0  0  0  0  0  0  0  0  0  0
  103.6360   97.6650  106.7900 O   0  0  0  0  0  0  0  0  0  0  0  0
  102.3300   98.4050  108.9030 C   0  0  0  0  0  0  0  0  0  0  0  0
  104.8160  100.3170  107.1170 H   0  0  0  0  0  0  0  0  0  0  0  0
   94.6980   99.4170  101.8530 C   0  0  0  0  0  0  0  0  0  0  0  0
   93.7700   99.1080  102.6630 O   0  0  0  0  0  0  0  0  0  0  0  0
   94.6710   99.2700  100.5910 O   0  0  0  0  0  0  0  0  0  0  0  0
  1  2  1  0  0  0  0
  2  3  1  0  0  0  0
  4  5  1  0  0  0  0
  4  3  1  0  0  0  0
  6  1  1  0  0  0  0
  6  7  1  0  0  0  0
  7  8  1  0  0  0  0
  8 10  2  0  0  0  0
  9 12  1  0  0  0  0
  9  7  2  0  0  0  0
 10 22  1  0  0  0  0
 11  9  1  0  0  0  0
 12 13  2  0  0  0  0
 13 10  1  0  0  0  0
 14 17  1  0  0  0  0
 14 11  1  0  0  0  0
 15 18  2  0  0  0  0
 15 12  1  0  0  0  0
 16 14  2  0  0  0  0
 17 15  1  0  0  0  0
 19 21  2  0  0  0  0
 19 16  1  0  0  0  0
 20 17  2  0  0  0  0
 21 20  1  0  0  0  0
 22 23  1  0  0  0  0
 22 25  1  1  0  0  0
 24 22  1  0  0  0  0
 26 23  1  0  0  0  0
 27 21  1  0  0  0  0
 27 28  1  0  0  0  0
 29 27  2  0  0  0  0
M  END
>  <minimizedAffinity>
-7.80320311

>  <CNNscore>
0.524218917

>  <CNNaffinity>
6.58979225

$$$$
