
 OpenBabel08282612213D

 32 35  0  0  0  0  0  0  0  0999 V2000
   97.8530  103.0560  106.0720 N   0  0  0  0  0  0  0  0  0  0  0  0
   97.2710  103.9030  107.1260 C   0  0  0  0  0  0  0  0  0  0  0  0
   95.8170  104.2660  106.8110 C   0  0  0  0  0  0  0  0  0  0  0  0
   95.5670  104.3190  105.3090 C   0  0  0  0  0  0  0  0  0  0  0  0
   95.9070  102.9940  104.6640 C   0  0  0  0  0  0  0  0  0  0  0  0
   95.3070  102.6090  103.5190 C   0  0  0  0  0  0  0  0  0  0  0  0
   94.4110  103.4590  102.9600 F   0  0  0  0  0  0  0  0  0  0  0  0
   96.9180  102.1430  105.4000 C   0  0  0  0  0  0  0  0  0  0  0  0
   99.0430  102.3750  106.4560 C   0  0  0  0  0  0  0  0  0  0  0  0
   99.5510  101.3040  105.6570 C   0  0  0  0  0  0  0  0  0  0  0  0
  100.6710  100.5330  106.0740 C   0  0  0  0  0  0  0  0  0  0  0  0
   99.6920  102.6590  107.6710 C   0  0  0  0  0  0  0  0  0  0  0  0
  101.2270   99.4240  105.3510 N   0  0  0  0  0  0  0  0  0  0  0  0
  101.2760  100.8870  107.3090 C   0  0  0  0  0  0  0  0  0  0  0  0
  100.7960  101.9420  108.0910 C   0  0  0  0  0  0  0  0  0  0  0  0
  102.1960   98.6440  105.9620 C   0  0  0  0  0  0  0  0  0  0  0  0
  102.4320  100.1180  107.8450 C   0  0  0  0  0  0  0  0  0  0  0  0
  102.8080   98.9040  107.1190 C   0  0  0  0  0  0  0  0  0  0  0  0
  103.0060  100.5110  108.8570 O   0  0  0  0  0  0  0  0  0  0  0  0
   99.2130  103.6090  108.4900 F   0  0  0  0  0  0  0  0  0  0  0  0
   98.8790  100.9270  104.5100 O   0  0  0  0  0  0  0  0  0  0  0  0
   97.7620  100.0760  104.7680 C   0  0  0  0  0  0  0  0  0  0  0  0
  100.7030   98.9440  104.0550 C   0  0  0  0  0  0  0  0  0  0  0  0
   99.7200   99.7450  103.2230 C   0  0  0  0  0  0  0  0  0  0  0  0
   99.2670   98.4950  103.9000 C   0  0  0  0  0  0  0  0  0  0  0  0
  103.8540   97.9410  107.6130 C   0  0  0  0  0  0  0  0  0  0  0  0
  104.6480   97.5020  106.7300 O   0  0  0  0  0  0  0  0  0  0  0  0
  103.7390   97.5960  108.8260 O   0  0  0  0  0  0  0  0  0  0  0  0
   95.5600  101.3210  102.7880 C   0  0  0  0  0  0  0  0  0  0  0  0
   96.7030  101.4300  101.8790 N   0  0  0  0  0  0  0  0  0  0  0  0
   97.5450  101.5420  102.4400 H   0  0  0  0  0  0  0  0  0  0  0  0
   96.8150  100.5470  101.3840 H   0  0  0  0  0  0  0  0  0  0  0  0
  1  9  1  0  0  0  0
  1  2  1  0  0  0  0
  3  2  1  0  0  0  0
  4  3  1  0  0  0  0
  5  4  1  0  0  0  0
  5  8  1  0  0  0  0
  6  5  2  0  0  0  0
  7  6  1  0  0  0  0
  8  1  1  0  0  0  0
  9 12  1  0  0  0  0
 10 11  1  0  0  0  0
 10  9  2  0  0  0  0
 11 14  2  0  0  0  0
 12 15  2  0  0  0  0
 12 20  1  0  0  0  0
 13 16  1  0  0  0  0
 13 11  1  0  0  0  0
 14 17  1  0  0  0  0
 14 15  1  0  0  0  0
 16 18  2  0  0  0  0
 17 19  2  0  0  0  0
 18 26  1  0  0  0  0
 18 17  1  0  0  0  0
 21 22  1  0  0  0  0
 21 10  1  0  0  0  0
 23 13  1  0  0  0  0
 24 25  1  0  0  0  0
 24 23  1  0  0  0  0
 25 23  1  0  0  0  0
 26 28  1  0  0  0  0
 27 26  2  0  0  0  0
 29  6  1  0  0  0  0
 30 31  1  0  0  0  0
 30 29  1  0  0  0  0
 32 30  1  0  0  0  0
M  END
>  <minimizedAffinity>
-7.89090872

>  <CNNscore>
0.548290849

>  <CNNaffinity>
7.03496313

$$$$

 OpenBabel08282612213D

 32 35  0  0  0  0  0  0  0  0999 V2000
   96.4660   99.8980  103.0820 N   0  0  0  0  0  0  0  0  0  0  0  0
   96.5870  100.8740  101.9870 C   0  0  0  0  0  0  0  0  0  0  0  0
   95.2210  101.2090  101.3840 C   0  0  0  0  0  0  0  0  0  0  0  0
   94.2540  100.0360  101.5040 C   0  0  0  0  0  0  0  0  0  0  0  0
   94.0810   99.6330  102.9500 C   0  0  0  0  0  0  0  0  0  0  0  0
   92.9500   99.0310  103.3700 C   0  0  0  0  0  0  0  0  0  0  0  0
   91.9890   98.7830  102.4450 F   0  0  0  0  0  0  0  0  0  0  0  0
   95.2300   99.9780  103.8730 C   0  0  0  0  0  0  0  0  0  0  0  0
   97.6080   99.8190  103.9290 C   0  0  0  0  0  0  0  0  0  0  0  0
   97.8350  100.8160  104.9280 C   0  0  0  0  0  0  0  0  0  0  0  0
   99.0230  100.8270  105.7100 C   0  0  0  0  0  0  0  0  0  0  0  0
   98.5920   98.8310  103.7460 C   0  0  0  0  0  0  0  0  0  0  0  0
   99.3460  101.8050  106.7110 N   0  0  0  0  0  0  0  0  0  0  0  0
   99.9640   99.7900  105.4710 C   0  0  0  0  0  0  0  0  0  0  0  0
   99.7450   98.8010  104.5070 C   0  0  0  0  0  0  0  0  0  0  0  0
  100.6170  101.8050  107.2620 C   0  0  0  0  0  0  0  0  0  0  0  0
  101.2520   99.7370  106.2160 C   0  0  0  0  0  0  0  0  0  0  0  0
  101.5580  100.8740  107.0840 C   0  0  0  0  0  0  0  0  0  0  0  0
  101.9960   98.7710  106.0710 O   0  0  0  0  0  0  0  0  0  0  0  0
   98.4580   97.9130  102.7760 F   0  0  0  0  0  0  0  0  0  0  0  0
   96.9440  101.8630  105.0660 O   0  0  0  0  0  0  0  0  0  0  0  0
   97.2950  103.0070  104.2870 C   0  0  0  0  0  0  0  0  0  0  0  0
   98.4650  102.9370  107.0670 C   0  0  0  0  0  0  0  0  0  0  0  0
   98.8630  103.9990  108.0740 C   0  0  0  0  0  0  0  0  0  0  0  0
   97.7910  103.0190  108.4180 C   0  0  0  0  0  0  0  0  0  0  0  0
  102.8780  101.0410  107.7870 C   0  0  0  0  0  0  0  0  0  0  0  0
  103.6430  101.9240  107.3020 O   0  0  0  0  0  0  0  0  0  0  0  0
  103.1110  100.1970  108.7020 O   0  0  0  0  0  0  0  0  0  0  0  0
   92.6630   98.5870  104.7760 C   0  0  0  0  0  0  0  0  0  0  0  0
   91.4340   99.1920  105.2940 N   0  0  0  0  0  0  0  0  0  0  0  0
   90.6480   98.8120  104.7700 H   0  0  0  0  0  0  0  0  0  0  0  0
   91.2990   98.8890  106.2570 H   0  0  0  0  0  0  0  0  0  0  0  0
  1  8  1  0  0  0  0
  1  9  1  0  0  0  0
  2  1  1  0  0  0  0
  3  4  1  0  0  0  0
  3  2  1  0  0  0  0
  4  5  1  0  0  0  0
  5  6  2  0  0  0  0
  5  8  1  0  0  0  0
  6 29  1  0  0  0  0
  7  6  1  0  0  0  0
  9 10  1  0  0  0  0
 10 21  1  0  0  0  0
 10 11  2  0  0  0  0
 11 13  1  0  0  0  0
 12  9  2  0  0  0  0
 12 15  1  0  0  0  0
 13 23  1  0  0  0  0
 13 16  1  0  0  0  0
 14 11  1  0  0  0  0
 14 17  1  0  0  0  0
 15 14  2  0  0  0  0
 17 18  1  0  0  0  0
 18 16  2  0  0  0  0
 18 26  1  0  0  0  0
 19 17  2  0  0  0  0
 20 12  1  0  0  0  0
 22 21  1  0  0  0  0
 23 24  1  0  0  0  0
 23 25  1  0  0  0  0
 24 25  1  0  0  0  0
 26 28  1  0  0  0  0
 27 26  2  0  0  0  0
 29 30  1  0  0  0  0
 30 32  1  0  0  0  0
 31 30  1  0  0  0  0
M  END
>  <minimizedAffinity>
-8.17086411

>  <CNNscore>
0.412346482

>  <CNNaffinity>
6.37021637

$$$$

 OpenBabel08282612213D

 32 35  0  0  0  0  0  0  0  0999 V2000
   99.0620  103.8570  107.0980 N   0  0  0  0  0  0  0  0  0  0  0  0
   99.4220  105.2410  107.4480 C   0  0  0  0  0  0  0  0  0  0  0  0
   98.1770  106.0910  107.7120 C   0  0  0  0  0  0  0  0  0  0  0  0
   96.9820  105.5990  106.9030 C   0  0  0  0  0  0  0  0  0  0  0  0
   96.6810  104.1530  107.2220 C   0  0  0  0  0  0  0  0  0  0  0  0
   95.4350  103.6580  107.0770 C   0  0  0  0  0  0  0  0  0  0  0  0
   94.4730  104.4970  106.6160 F   0  0  0  0  0  0  0  0  0  0  0  0
   97.8450  103.3350  107.7350 C   0  0  0  0  0  0  0  0  0  0  0  0
  100.1340  102.9260  107.2070 C   0  0  0  0  0  0  0  0  0  0  0  0
  100.2490  101.8460  106.2760 C   0  0  0  0  0  0  0  0  0  0  0  0
  101.2410  100.8380  106.4270 C   0  0  0  0  0  0  0  0  0  0  0  0
  101.0430  102.9740  108.2780 C   0  0  0  0  0  0  0  0  0  0  0  0
  101.4080   99.7050  105.5600 N   0  0  0  0  0  0  0  0  0  0  0  0
  102.1260  100.9630  107.5310 C   0  0  0  0  0  0  0  0  0  0  0  0
  102.0320  102.0230  108.4380 C   0  0  0  0  0  0  0  0  0  0  0  0
  102.2890   98.7030  105.9310 C   0  0  0  0  0  0  0  0  0  0  0  0
  103.1760   99.9390  107.7910 C   0  0  0  0  0  0  0  0  0  0  0  0
  103.1470   98.7400  106.9530 C   0  0  0  0  0  0  0  0  0  0  0  0
  103.9980  100.1270  108.6840 O   0  0  0  0  0  0  0  0  0  0  0  0
  100.9350  103.9290  109.2160 F   0  0  0  0  0  0  0  0  0  0  0  0
   99.3100  101.7050  105.2720 O   0  0  0  0  0  0  0  0  0  0  0  0
   99.2490  102.8320  104.3970 C   0  0  0  0  0  0  0  0  0  0  0  0
  100.5630   99.4470  104.3760 C   0  0  0  0  0  0  0  0  0  0  0  0
  100.9990   98.5380  103.2420 C   0  0  0  0  0  0  0  0  0  0  0  0
  100.9130  100.0110  103.0170 C   0  0  0  0  0  0  0  0  0  0  0  0
  104.0430   97.5530  107.1860 C   0  0  0  0  0  0  0  0  0  0  0  0
  104.2780   97.2810  108.3990 O   0  0  0  0  0  0  0  0  0  0  0  0
  104.5450   97.0440  106.1410 O   0  0  0  0  0  0  0  0  0  0  0  0
   95.0150  102.2440  107.3620 C   0  0  0  0  0  0  0  0  0  0  0  0
   95.3150  101.3540  106.2390 N   0  0  0  0  0  0  0  0  0  0  0  0
   96.3260  101.2780  106.1550 H   0  0  0  0  0  0  0  0  0  0  0  0
   94.9830  100.4170  106.4640 H   0  0  0  0  0  0  0  0  0  0  0  0
  1  9  1  0  0  0  0
  1  2  1  0  0  0  0
  1  8  1  0  0  0  0
  2  3  1  0  0  0  0
  4  5  1  0  0  0  0
  4  3  1  0  0  0  0
  5  8  1  0  0  0  0
  6  5  2  0  0  0  0
  6 29  1  0  0  0  0
  7  6  1  0  0  0  0
  9 12  1  0  0  0  0
 10 11  1  0  0  0  0
 10  9  2  0  0  0  0
 11 14  2  0  0  0  0
 12 15  2  0  0  0  0
 12 20  1  0  0  0  0
 13 16  1  0  0  0  0
 13 11  1  0  0  0  0
 14 17  1  0  0  0  0
 14 15  1  0  0  0  0
 16 18  2  0  0  0  0
 17 19  2  0  0  0  0
 18 26  1  0  0  0  0
 18 17  1  0  0  0  0
 21 10  1  0  0  0  0
 22 21  1  0  0  0  0
 23 13  1  0  0  0  0
 24 23  1  0  0  0  0
 25 24  1  0  0  0  0
 25 23  1  0  0  0  0
 26 27  1  0  0  0  0
 28 26  2  0  0  0  0
 30 32  1  0  0  0  0
 30 29  1  0  0  0  0
 31 30  1  0  0  0  0
M  END
>  <minimizedAffinity>
-7.06651068

>  <CNNscore>
0.39290604

>  <CNNaffinity>
6.98089361

$$$$

 OpenBabel08282612213D

 32 35  0  0  0  0  0  0  0  0999 V2000
   98.6100  101.2680  103.3910 N   0  0  0  0  0  0  0  0  0  0  0  0
   99.1830  100.3670  102.3780 C   0  0  0  0  0  0  0  0  0  0  0  0
  100.4650   99.7010  102.8850 C   0  0  0  0  0  0  0  0  0  0  0  0
  101.1960  100.5860  103.8870 C   0  0  0  0  0  0  0  0  0  0  0  0
  100.3020  100.9160  105.0600 C   0  0  0  0  0  0  0  0  0  0  0  0
  100.8250  101.2040  106.2690 C   0  0  0  0  0  0  0  0  0  0  0  0
  102.1760  101.2080  106.3860 F   0  0  0  0  0  0  0  0  0  0  0  0
   98.8140  100.8660  104.7890 C   0  0  0  0  0  0  0  0  0  0  0  0
   97.2510  101.6260  103.1570 C   0  0  0  0  0  0  0  0  0  0  0  0
   96.3450  100.6830  102.5800 C   0  0  0  0  0  0  0  0  0  0  0  0
   95.0160  101.0470  102.2310 C   0  0  0  0  0  0  0  0  0  0  0  0
   96.7870  102.9340  103.3850 C   0  0  0  0  0  0  0  0  0  0  0  0
   94.0510  100.1750  101.6220 N   0  0  0  0  0  0  0  0  0  0  0  0
   94.6210  102.3850  102.5010 C   0  0  0  0  0  0  0  0  0  0  0  0
   95.4940  103.3120  103.0790 C   0  0  0  0  0  0  0  0  0  0  0  0
   92.8590  100.7110  101.1630 C   0  0  0  0  0  0  0  0  0  0  0  0
   93.2590  102.8690  102.1410 C   0  0  0  0  0  0  0  0  0  0  0  0
   92.4180  101.9540  101.3690 C   0  0  0  0  0  0  0  0  0  0  0  0
   92.9060  103.9940  102.4850 O   0  0  0  0  0  0  0  0  0  0  0  0
   97.6180  103.8750  103.8620 F   0  0  0  0  0  0  0  0  0  0  0  0
   96.7950   99.4200  102.2440 O   0  0  0  0  0  0  0  0  0  0  0  0
   96.7710   98.5050  103.3390 C   0  0  0  0  0  0  0  0  0  0  0  0
   94.3210   98.7620  101.2850 C   0  0  0  0  0  0  0  0  0  0  0  0
   93.3730   97.9250  100.4460 C   0  0  0  0  0  0  0  0  0  0  0  0
   93.5220   97.6350  101.9030 C   0  0  0  0  0  0  0  0  0  0  0  0
   91.0800  102.3470  100.8020 C   0  0  0  0  0  0  0  0  0  0  0  0
   90.1830  102.6000  101.6570 O   0  0  0  0  0  0  0  0  0  0  0  0
   90.9830  102.2620   99.5430 O   0  0  0  0  0  0  0  0  0  0  0  0
  100.0410  101.5450  107.5050 C   0  0  0  0  0  0  0  0  0  0  0  0
   99.8890  102.9920  107.6670 N   0  0  0  0  0  0  0  0  0  0  0  0
   99.2920  103.3340  106.9170 H   0  0  0  0  0  0  0  0  0  0  0  0
   99.3820  103.1750  108.5320 H   0  0  0  0  0  0  0  0  0  0  0  0
  1  8  1  0  0  0  0
  2  3  1  0  0  0  0
  2  1  1  0  0  0  0
  3  4  1  0  0  0  0
  4  5  1  0  0  0  0
  5  6  2  0  0  0  0
  6  7  1  0  0  0  0
  6 29  1  0  0  0  0
  8  5  1  0  0  0  0
  9 12  1  0  0  0  0
  9  1  1  0  0  0  0
 10  9  2  0  0  0  0
 11 14  2  0  0  0  0
 11 10  1  0  0  0  0
 12 20  1  0  0  0  0
 13 11  1  0  0  0  0
 14 15  1  0  0  0  0
 15 12  2  0  0  0  0
 16 18  2  0  0  0  0
 16 13  1  0  0  0  0
 17 19  2  0  0  0  0
 17 14  1  0  0  0  0
 18 17  1  0  0  0  0
 21 10  1  0  0  0  0
 21 22  1  0  0  0  0
 23 13  1  0  0  0  0
 23 25  1  0  0  0  0
 24 23  1  0  0  0  0
 24 25  1  0  0  0  0
 26 18  1  0  0  0  0
 26 27  1  0  0  0  0
 28 26  2  0  0  0  0
 29 30  1  0  0  0  0
 30 32  1  0  0  0  0
 31 30  1  0  0  0  0
M  END
>  <minimizedAffinity>
-6.20264578

>  <CNNscore>
0.353492975

>  <CNNaffinity>
6.48593903

$$$$

 OpenBabel08282612213D

 32 35  0  0  0  0  0  0  0  0999 V2000
   96.5570  100.9780  102.9290 N   0  0  0  0  0  0  0  0  0  0  0  0
   96.6610  102.3320  102.3620 C   0  0  0  0  0  0  0  0  0  0  0  0
   95.3170  102.8090  101.8050 C   0  0  0  0  0  0  0  0  0  0  0  0
   94.4680  101.6410  101.3170 C   0  0  0  0  0  0  0  0  0  0  0  0
   94.2280  100.6520  102.4340 C   0  0  0  0  0  0  0  0  0  0  0  0
   93.1350   99.8620  102.4350 C   0  0  0  0  0  0  0  0  0  0  0  0
   92.2760   99.9730  101.3910 F   0  0  0  0  0  0  0  0  0  0  0  0
   95.2630  100.6400  103.5380 C   0  0  0  0  0  0  0  0  0  0  0  0
   97.6340  100.6160  103.7880 C   0  0  0  0  0  0  0  0  0  0  0  0
   97.9640  101.4310  104.9150 C   0  0  0  0  0  0  0  0  0  0  0  0
   99.1020  101.1580  105.7220 C   0  0  0  0  0  0  0  0  0  0  0  0
   98.4630   99.5170  103.5030 C   0  0  0  0  0  0  0  0  0  0  0  0
   99.5240  101.9400  106.8510 N   0  0  0  0  0  0  0  0  0  0  0  0
   99.8840  100.0240  105.3730 C   0  0  0  0  0  0  0  0  0  0  0  0
   99.5620   99.2110  104.2820 C   0  0  0  0  0  0  0  0  0  0  0  0
  100.7530  101.6710  107.4300 C   0  0  0  0  0  0  0  0  0  0  0  0
  101.1130   99.6760  106.1380 C   0  0  0  0  0  0  0  0  0  0  0  0
  101.5480  100.6340  107.1560 C   0  0  0  0  0  0  0  0  0  0  0  0
  101.7080   98.6320  105.8870 O   0  0  0  0  0  0  0  0  0  0  0  0
   98.2350   98.7600  102.4170 F   0  0  0  0  0  0  0  0  0  0  0  0
   97.2360  102.5800  105.1650 O   0  0  0  0  0  0  0  0  0  0  0  0
   96.1010  102.3540  106.0020 C   0  0  0  0  0  0  0  0  0  0  0  0
   98.8090  103.1410  107.3290 C   0  0  0  0  0  0  0  0  0  0  0  0
   99.4150  104.5310  107.2680 C   0  0  0  0  0  0  0  0  0  0  0  0
   99.2300  103.8630  108.5900 C   0  0  0  0  0  0  0  0  0  0  0  0
  102.8450  100.5020  107.9080 C   0  0  0  0  0  0  0  0  0  0  0  0
  102.8200   99.7130  108.8970 O   0  0  0  0  0  0  0  0  0  0  0  0
  103.7670  101.2840  107.5330 O   0  0  0  0  0  0  0  0  0  0  0  0
   92.7890   98.8460  103.4870 C   0  0  0  0  0  0  0  0  0  0  0  0
   91.7800   99.3550  104.4190 N   0  0  0  0  0  0  0  0  0  0  0  0
   90.9050   99.4640  103.9110 H   0  0  0  0  0  0  0  0  0  0  0  0
   91.6030   98.6470  105.1300 H   0  0  0  0  0  0  0  0  0  0  0  0
  1  8  1  0  0  0  0
  1  9  1  0  0  0  0
  2  1  1  0  0  0  0
  3  2  1  0  0  0  0
  4  3  1  0  0  0  0
  4  5  1  0  0  0  0
  5  6  2  0  0  0  0
  5  8  1  0  0  0  0
  6 29  1  0  0  0  0
  7  6  1  0  0  0  0
  9 10  1  0  0  0  0
 10 21  1  0  0  0  0
 10 11  2  0  0  0  0
 11 13  1  0  0  0  0
 12  9  2  0  0  0  0
 12 15  1  0  0  0  0
 13 23  1  0  0  0  0
 13 16  1  0  0  0  0
 14 11  1  0  0  0  0
 14 17  1  0  0  0  0
 15 14  2  0  0  0  0
 17 18  1  0  0  0  0
 18 16  2  0  0  0  0
 18 26  1  0  0  0  0
 19 17  2  0  0  0  0
 20 12  1  0  0  0  0
 21 22  1  0  0  0  0
 23 25  1  0  0  0  0
 24 23  1  0  0  0  0
 24 25  1  0  0  0  0
 26 27  1  0  0  0  0
 28 26  2  0  0  0  0
 29 30  1  0  0  0  0
 30 32  1  0  0  0  0
 31 30  1  0  0  0  0
M  END
>  <minimizedAffinity>
-7.82179451

>  <CNNscore>
0.341547698

>  <CNNaffinity>
6.4881587

$$$$

 OpenBabel08282612213D

 32 35  0  0  0  0  0  0  0  0999 V2000
   97.9850  100.1340  103.2810 N   0  0  0  0  0  0  0  0  0  0  0  0
   98.8450   99.0800  102.7180 C   0  0  0  0  0  0  0  0  0  0  0  0
  100.3270   99.4430  102.8430 C   0  0  0  0  0  0  0  0  0  0  0  0
  100.5370  100.9530  102.8140 C   0  0  0  0  0  0  0  0  0  0  0  0
   99.7590  101.6210  103.9240 C   0  0  0  0  0  0  0  0  0  0  0  0
  100.1630  102.8010  104.4380 C   0  0  0  0  0  0  0  0  0  0  0  0
  101.2750  103.3710  103.9100 F   0  0  0  0  0  0  0  0  0  0  0  0
   98.5440  100.8700  104.4230 C   0  0  0  0  0  0  0  0  0  0  0  0
   96.6480   99.7210  103.5460 C   0  0  0  0  0  0  0  0  0  0  0  0
   95.5880  100.0990  102.6650 C   0  0  0  0  0  0  0  0  0  0  0  0
   94.2300   99.7990  102.9640 C   0  0  0  0  0  0  0  0  0  0  0  0
   96.3130   99.0260  104.7210 C   0  0  0  0  0  0  0  0  0  0  0  0
   93.1030  100.1670  102.1530 N   0  0  0  0  0  0  0  0  0  0  0  0
   93.9760   99.0870  104.1660 C   0  0  0  0  0  0  0  0  0  0  0  0
   95.0060   98.6990  105.0280 C   0  0  0  0  0  0  0  0  0  0  0  0
   91.8270   99.9780  102.6560 C   0  0  0  0  0  0  0  0  0  0  0  0
   92.5840   98.7570  104.5810 C   0  0  0  0  0  0  0  0  0  0  0  0
   91.5040   99.3270  103.7750 C   0  0  0  0  0  0  0  0  0  0  0  0
   92.3980   98.0460  105.5640 O   0  0  0  0  0  0  0  0  0  0  0  0
   97.2640   98.7080  105.6150 F   0  0  0  0  0  0  0  0  0  0  0  0
   95.8650  100.8750  101.5540 O   0  0  0  0  0  0  0  0  0  0  0  0
   96.0680  102.2520  101.8670 C   0  0  0  0  0  0  0  0  0  0  0  0
   93.2170  100.9070  100.8780 C   0  0  0  0  0  0  0  0  0  0  0  0
   92.1910  101.9330  100.4340 C   0  0  0  0  0  0  0  0  0  0  0  0
   92.2890  100.6280   99.7170 C   0  0  0  0  0  0  0  0  0  0  0  0
   90.0510   99.2100  104.1480 C   0  0  0  0  0  0  0  0  0  0  0  0
   89.7270   98.1400  104.7400 O   0  0  0  0  0  0  0  0  0  0  0  0
   89.3080  100.1430  103.7200 O   0  0  0  0  0  0  0  0  0  0  0  0
   99.4770  103.5580  105.5390 C   0  0  0  0  0  0  0  0  0  0  0  0
  100.1110  103.3200  106.8370 N   0  0  0  0  0  0  0  0  0  0  0  0
  101.0400  103.7370  106.8180 H   0  0  0  0  0  0  0  0  0  0  0  0
   99.5930  103.8250  107.5540 H   0  0  0  0  0  0  0  0  0  0  0  0
  1  9  1  0  0  0  0
  1  8  1  0  0  0  0
  2  3  1  0  0  0  0
  2  1  1  0  0  0  0
  4  3  1  0  0  0  0
  4  5  1  0  0  0  0
  5  8  1  0  0  0  0
  5  6  2  0  0  0  0
  6 29  1  0  0  0  0
  7  6  1  0  0  0  0
  9 12  1  0  0  0  0
 10 11  1  0  0  0  0
 10  9  2  0  0  0  0
 11 14  2  0  0  0  0
 12 15  2  0  0  0  0
 12 20  1  0  0  0  0
 13 16  1  0  0  0  0
 13 11  1  0  0  0  0
 14 17  1  0  0  0  0
 14 15  1  0  0  0  0
 16 18  2  0  0  0  0
 17 19  2  0  0  0  0
 18 26  1  0  0  0  0
 18 17  1  0  0  0  0
 21 22  1  0  0  0  0
 21 10  1  0  0  0  0
 23 13  1  0  0  0  0
 24 23  1  0  0  0  0
 25 24  1  0  0  0  0
 25 23  1  0  0  0  0
 26 27  1  0  0  0  0
 28 26  2  0  0  0  0
 29 30  1  0  0  0  0
 30 32  1  0  0  0  0
 31 30  1  0  0  0  0
M  END
>  <minimizedAffinity>
-6.3580904

>  <CNNscore>
0.338884562

>  <CNNaffinity>
6.13711119

$$$$

 OpenBabel08282612213D

 32 35  0  0  0  0  0  0  0  0999 V2000
  100.0250  101.2360  104.7990 N   0  0  0  0  0  0  0  0  0  0  0  0
  100.6100  102.3960  104.1080 C   0  0  0  0  0  0  0  0  0  0  0  0
  102.0160  102.7050  104.6270 C   0  0  0  0  0  0  0  0  0  0  0  0
  102.1760  102.2930  106.0860 C   0  0  0  0  0  0  0  0  0  0  0  0
  101.8870  100.8200  106.2600 C   0  0  0  0  0  0  0  0  0  0  0  0
  102.4440  100.1210  107.2690 C   0  0  0  0  0  0  0  0  0  0  0  0
  103.2500  100.7900  108.1300 F   0  0  0  0  0  0  0  0  0  0  0  0
  100.9770  100.2000  105.2220 C   0  0  0  0  0  0  0  0  0  0  0  0
   98.9050  100.6590  104.1350 C   0  0  0  0  0  0  0  0  0  0  0  0
   97.7440  101.4450  103.8620 C   0  0  0  0  0  0  0  0  0  0  0  0
   96.5700  100.8680  103.3030 C   0  0  0  0  0  0  0  0  0  0  0  0
   98.8640   99.2890  103.8210 C   0  0  0  0  0  0  0  0  0  0  0  0
   95.3510  101.5750  103.0260 N   0  0  0  0  0  0  0  0  0  0  0  0
   96.6110   99.4790  103.0070 C   0  0  0  0  0  0  0  0  0  0  0  0
   97.7470   98.7040  103.2560 C   0  0  0  0  0  0  0  0  0  0  0  0
   94.2260  100.8530  102.6600 C   0  0  0  0  0  0  0  0  0  0  0  0
   95.4200   98.7790  102.4510 C   0  0  0  0  0  0  0  0  0  0  0  0
   94.1800   99.5510  102.3710 C   0  0  0  0  0  0  0  0  0  0  0  0
   95.5160   97.6060  102.1010 O   0  0  0  0  0  0  0  0  0  0  0  0
   99.9040   98.4930  104.1200 F   0  0  0  0  0  0  0  0  0  0  0  0
   97.7070  102.7710  104.2520 O   0  0  0  0  0  0  0  0  0  0  0  0
   97.4270  102.9390  105.6420 C   0  0  0  0  0  0  0  0  0  0  0  0
   95.1640  103.0190  103.2810 C   0  0  0  0  0  0  0  0  0  0  0  0
   94.0030  103.8080  102.7050 C   0  0  0  0  0  0  0  0  0  0  0  0
   95.3850  104.0490  102.1960 C   0  0  0  0  0  0  0  0  0  0  0  0
   92.8600   98.9480  101.9730 C   0  0  0  0  0  0  0  0  0  0  0  0
   92.1960   98.4260  102.9150 O   0  0  0  0  0  0  0  0  0  0  0  0
   92.6300   98.9300  100.7280 O   0  0  0  0  0  0  0  0  0  0  0  0
  102.2340   98.6580  107.5420 C   0  0  0  0  0  0  0  0  0  0  0  0
  103.0570   97.8210  106.6670 N   0  0  0  0  0  0  0  0  0  0  0  0
  104.0340   97.9620  106.9190 H   0  0  0  0  0  0  0  0  0  0  0  0
  102.8580   96.8420  106.8650 H   0  0  0  0  0  0  0  0  0  0  0  0
  1  8  1  0  0  0  0
  2  3  1  0  0  0  0
  2  1  1  0  0  0  0
  3  4  1  0  0  0  0
  4  5  1  0  0  0  0
  5  6  2  0  0  0  0
  6 29  1  0  0  0  0
  6  7  1  0  0  0  0
  8  5  1  0  0  0  0
  9  1  1  0  0  0  0
 10  9  1  0  0  0  0
 10 21  1  0  0  0  0
 11 10  2  0  0  0  0
 12 20  1  0  0  0  0
 12  9  2  0  0  0  0
 13 23  1  0  0  0  0
 13 11  1  0  0  0  0
 14 15  2  0  0  0  0
 14 11  1  0  0  0  0
 15 12  1  0  0  0  0
 16 13  1  0  0  0  0
 17 14  1  0  0  0  0
 18 17  1  0  0  0  0
 18 16  2  0  0  0  0
 19 17  2  0  0  0  0
 21 22  1  0  0  0  0
 24 23  1  0  0  0  0
 25 24  1  0  0  0  0
 25 23  1  0  0  0  0
 26 18  1  0  0  0  0
 26 27  1  0  0  0  0
 28 26  2  0  0  0  0
 30 32  1  0  0  0  0
 30 31  1  0  0  0  0
 30 29  1  0  0  0  0
M  END
>  <minimizedAffinity>
-7.50617313

>  <CNNscore>
0.247867227

>  <CNNaffinity>
6.20683527

$$$$

 OpenBabel08282612213D

 32 35  0  0  0  0  0  0  0  0999 V2000
   94.2980  100.6240  102.4510 N   0  0  0  0  0  0  0  0  0  0  0  0
   94.9720   99.3480  102.1590 C   0  0  0  0  0  0  0  0  0  0  0  0
   94.1580   98.4980  101.1810 C   0  0  0  0  0  0  0  0  0  0  0  0
   92.6640   98.7700  101.3120 C   0  0  0  0  0  0  0  0  0  0  0  0
   92.3650  100.2330  101.0770 C   0  0  0  0  0  0  0  0  0  0  0  0
   91.1590  100.6280  100.6220 C   0  0  0  0  0  0  0  0  0  0  0  0
   90.2230   99.6710  100.4060 F   0  0  0  0  0  0  0  0  0  0  0  0
   93.5040  101.1900  101.3520 C   0  0  0  0  0  0  0  0  0  0  0  0
   95.1400  101.6130  103.0340 C   0  0  0  0  0  0  0  0  0  0  0  0
   96.3510  101.2330  103.6910 C   0  0  0  0  0  0  0  0  0  0  0  0
   97.1520  102.1850  104.3800 C   0  0  0  0  0  0  0  0  0  0  0  0
   94.7630  102.9670  103.0740 C   0  0  0  0  0  0  0  0  0  0  0  0
   98.3640  101.8870  105.0920 N   0  0  0  0  0  0  0  0  0  0  0  0
   96.7070  103.5340  104.3680 C   0  0  0  0  0  0  0  0  0  0  0  0
   95.5320  103.9190  103.7150 C   0  0  0  0  0  0  0  0  0  0  0  0
   98.9400  102.8740  105.8750 C   0  0  0  0  0  0  0  0  0  0  0  0
   97.4610  104.5970  105.0890 C   0  0  0  0  0  0  0  0  0  0  0  0
   98.5800  104.1580  105.9230 C   0  0  0  0  0  0  0  0  0  0  0  0
   97.1180  105.7700  104.9710 O   0  0  0  0  0  0  0  0  0  0  0  0
   93.6000  103.3630  102.5310 F   0  0  0  0  0  0  0  0  0  0  0  0
   96.7010   99.8980  103.7650 O   0  0  0  0  0  0  0  0  0  0  0  0
   96.1350   99.2310  104.8930 C   0  0  0  0  0  0  0  0  0  0  0  0
   98.9450  100.5320  105.1890 C   0  0  0  0  0  0  0  0  0  0  0  0
  100.3220  100.2730  105.7720 C   0  0  0  0  0  0  0  0  0  0  0  0
  100.0960  100.1000  104.3070 C   0  0  0  0  0  0  0  0  0  0  0  0
   99.3450  105.0870  106.8280 C   0  0  0  0  0  0  0  0  0  0  0  0
  100.0360  105.9690  106.2400 O   0  0  0  0  0  0  0  0  0  0  0  0
   99.2980  104.7990  108.0600 O   0  0  0  0  0  0  0  0  0  0  0  0
   90.7460  102.0470  100.3490 C   0  0  0  0  0  0  0  0  0  0  0  0
   90.5470  102.2870   98.9190 N   0  0  0  0  0  0  0  0  0  0  0  0
   89.7350  101.7520   98.6170 H   0  0  0  0  0  0  0  0  0  0  0  0
   90.3020  103.2660   98.7810 H   0  0  0  0  0  0  0  0  0  0  0  0
  1  9  1  0  0  0  0
  2  1  1  0  0  0  0
  3  4  1  0  0  0  0
  3  2  1  0  0  0  0
  5  4  1  0  0  0  0
  5  8  1  0  0  0  0
  6  5  2  0  0  0  0
  7  6  1  0  0  0  0
  8  1  1  0  0  0  0
  9 12  2  0  0  0  0
  9 10  1  0  0  0  0
 10 21  1  0  0  0  0
 10 11  2  0  0  0  0
 11 13  1  0  0  0  0
 12 15  1  0  0  0  0
 13 23  1  0  0  0  0
 13 16  1  0  0  0  0
 14 11  1  0  0  0  0
 14 17  1  0  0  0  0
 15 14  2  0  0  0  0
 16 18  2  0  0  0  0
 17 18  1  0  0  0  0
 18 26  1  0  0  0  0
 19 17  2  0  0  0  0
 20 12  1  0  0  0  0
 21 22  1  0  0  0  0
 23 24  1  0  0  0  0
 25 23  1  0  0  0  0
 25 24  1  0  0  0  0
 26 28  1  0  0  0  0
 27 26  2  0  0  0  0
 29  6  1  0  0  0  0
 30 29  1  0  0  0  0
 31 30  1  0  0  0  0
 32 30  1  0  0  0  0
M  END
>  <minimizedAffinity>
-7.24858618

>  <CNNscore>
0.241891518

>  <CNNaffinity>
5.90863943

$$$$

 OpenBabel08282612213D

 32 35  0  0  0  0  0  0  0  0999 V2000
   97.3360  100.6370  103.9480 N   0  0  0  0  0  0  0  0  0  0  0  0
   97.8830   99.2830  103.7660 C   0  0  0  0  0  0  0  0  0  0  0  0
   99.0240   99.0060  104.7480 C   0  0  0  0  0  0  0  0  0  0  0  0
   99.7660  100.2850  105.1190 C   0  0  0  0  0  0  0  0  0  0  0  0
   98.8170  101.2960  105.7210 C   0  0  0  0  0  0  0  0  0  0  0  0
   99.2620  102.2350  106.5800 C   0  0  0  0  0  0  0  0  0  0  0  0
  100.5880  102.2510  106.8650 F   0  0  0  0  0  0  0  0  0  0  0  0
   97.3650  101.1570  105.3220 C   0  0  0  0  0  0  0  0  0  0  0  0
   96.0570  100.8390  103.3540 C   0  0  0  0  0  0  0  0  0  0  0  0
   94.9420  100.0390  103.7530 C   0  0  0  0  0  0  0  0  0  0  0  0
   93.6830  100.1400  103.0990 C   0  0  0  0  0  0  0  0  0  0  0  0
   95.8740  101.7470  102.2960 C   0  0  0  0  0  0  0  0  0  0  0  0
   92.5210   99.3560  103.4140 N   0  0  0  0  0  0  0  0  0  0  0  0
   93.5770  101.0860  102.0450 C   0  0  0  0  0  0  0  0  0  0  0  0
   94.6570  101.8840  101.6560 C   0  0  0  0  0  0  0  0  0  0  0  0
   91.4210   99.4230  102.5750 C   0  0  0  0  0  0  0  0  0  0  0  0
   92.3090  101.2410  101.2790 C   0  0  0  0  0  0  0  0  0  0  0  0
   91.2460  100.2760  101.5640 C   0  0  0  0  0  0  0  0  0  0  0  0
   92.2080  102.1410  100.4500 O   0  0  0  0  0  0  0  0  0  0  0  0
   96.9070  102.4720  101.8380 F   0  0  0  0  0  0  0  0  0  0  0  0
   95.1100   99.0620  104.7170 O   0  0  0  0  0  0  0  0  0  0  0  0
   94.9340   99.5490  106.0470 C   0  0  0  0  0  0  0  0  0  0  0  0
   92.4850   98.3370  104.4830 C   0  0  0  0  0  0  0  0  0  0  0  0
   91.2630   97.4790  104.7550 C   0  0  0  0  0  0  0  0  0  0  0  0
   91.6590   98.5330  105.7350 C   0  0  0  0  0  0  0  0  0  0  0  0
   89.9670  100.2060  100.7740 C   0  0  0  0  0  0  0  0  0  0  0  0
   88.9040  100.2660  101.4570 O   0  0  0  0  0  0  0  0  0  0  0  0
   90.1100   99.9750   99.5370 O   0  0  0  0  0  0  0  0  0  0  0  0
   98.4190  103.2890  107.2410 C   0  0  0  0  0  0  0  0  0  0  0  0
   99.2280  104.4180  107.7050 N   0  0  0  0  0  0  0  0  0  0  0  0
   99.5970  104.9000  106.8870 H   0  0  0  0  0  0  0  0  0  0  0  0
   98.6210  105.0880  108.1730 H   0  0  0  0  0  0  0  0  0  0  0  0
  1  8  1  0  0  0  0
  2  1  1  0  0  0  0
  2  3  1  0  0  0  0
  3  4  1  0  0  0  0
  4  5  1  0  0  0  0
  5  6  2  0  0  0  0
  6  7  1  0  0  0  0
  6 29  1  0  0  0  0
  8  5  1  0  0  0  0
  9 10  1  0  0  0  0
  9  1  1  0  0  0  0
 10 21  1  0  0  0  0
 11 13  1  0  0  0  0
 11 10  2  0  0  0  0
 12  9  2  0  0  0  0
 13 23  1  0  0  0  0
 14 11  1  0  0  0  0
 15 14  2  0  0  0  0
 15 12  1  0  0  0  0
 16 13  1  0  0  0  0
 17 18  1  0  0  0  0
 17 14  1  0  0  0  0
 18 16  2  0  0  0  0
 19 17  2  0  0  0  0
 20 12  1  0  0  0  0
 21 22  1  0  0  0  0
 23 24  1  0  0  0  0
 23 25  1  0  0  0  0
 24 25  1  0  0  0  0
 26 27  1  0  0  0  0
 26 18  1  0  0  0  0
 28 26  2  0  0  0  0
 29 30  1  0  0  0  0
 30 32  1  0  0  0  0
 31 30  1  0  0  0  0
M  END
>  <minimizedAffinity>
-6.76903963

>  <CNNscore>
0.214717269

>  <CNNaffinity>
5.75503874

$$$$
