
 OpenBabel08282609023D

 39 43  0  0  1  0  0  0  0  0999 V2000
   98.2410  104.8310  107.4250 N   0  0  0  0  0  0  0  0  0  0  0  0
   97.6870  103.9610  106.4140 C   0  0  0  0  0  0  0  0  0  0  0  0
   96.3440  104.0370  106.0170 C   0  0  0  0  0  0  0  0  0  0  0  0
   95.8010  103.2050  105.0250 C   0  0  0  0  0  0  0  0  0  0  0  0
   96.6570  102.2790  104.4250 C   0  0  0  0  0  0  0  0  0  0  0  0
   97.9900  102.1770  104.7880 C   0  0  0  0  0  0  0  0  0  0  0  0
   98.6200  101.2160  104.0470 N   0  0  0  0  0  0  0  0  0  0  0  0
   97.7160  100.7340  103.2050 C   0  0  0  0  0  0  0  0  0  0  0  0
   96.4780  101.3160  103.4410 N   0  0  0  0  0  0  0  0  0  0  0  0
   98.5270  103.0080  105.7930 C   0  0  0  0  0  0  0  0  0  0  0  0
   99.9780  102.9360  106.1670 C   0  0  0  0  0  0  0  0  0  0  0  0
  100.0610  103.0610  107.6700 C   0  0  0  0  0  0  0  0  0  0  0  0
   99.4740  104.4050  108.1310 C   0  0  2  0  0  0  0  0  0  0  0  0
   99.2450  104.2950  109.6510 C   0  0  0  0  0  0  0  0  0  0  0  0
   97.7440  106.1330  107.6120 C   0  0  0  0  0  0  0  0  0  0  0  0
   96.5710  106.4880  107.5610 O   0  0  0  0  0  0  0  0  0  0  0  0
   98.7450  107.0420  107.8310 O   0  0  0  0  0  0  0  0  0  0  0  0
   99.3430  107.5590  106.6430 C   0  0  0  0  0  0  0  0  0  0  0  0
   95.1810  101.0200  102.8150 C   0  0  2  0  0  0  0  0  0  0  0  0
   94.6810   99.5800  103.0430 C   0  0  0  0  0  0  0  0  0  0  0  0
   95.1240  101.4880  101.3500 C   0  0  0  0  0  0  0  0  0  0  0  0
   94.3710   98.8310  101.7520 C   0  0  0  0  0  0  0  0  0  0  0  0
   93.8440  101.0710  100.6160 C   0  0  1  0  0  0  0  0  0  0  0  0
   93.4200   99.6140  100.8530 C   0  0  0  0  0  0  0  0  0  0  0  0
   92.6870  102.0050  101.0150 C   0  0  0  0  0  0  0  0  0  0  0  0
   91.6820  101.9560  100.2540 O   0  0  0  0  0  0  0  0  0  0  0  0
   92.8830  102.7150  102.0390 O   0  0  0  0  0  0  0  0  0  0  0  0
   98.0090   99.6780  102.1710 C   0  0  2  0  0  0  0  0  0  0  0  0
   97.9910   98.4160  102.8400 O   0  0  0  0  0  0  0  0  0  0  0  0
   98.7140   98.4920  103.4900 H   0  0  0  0  0  0  0  0  0  0  0  0
   99.3340   99.8960  101.4470 C   0  0  0  0  0  0  0  0  0  0  0  0
   99.3080  100.0340  100.0460 C   0  0  0  0  0  0  0  0  0  0  0  0
  100.5740  100.0080  102.1190 C   0  0  0  0  0  0  0  0  0  0  0  0
  100.4820  100.2730   99.3420 C   0  0  0  0  0  0  0  0  0  0  0  0
  101.7470  100.2420  101.3850 C   0  0  0  0  0  0  0  0  0  0  0  0
  101.6990  100.3780   99.9980 C   0  0  0  0  0  0  0  0  0  0  0  0
  100.4430  100.4120   98.0100 F   0  0  0  0  0  0  0  0  0  0  0  0
  100.5490   99.8480  103.4820 O   0  0  0  0  0  0  0  0  0  0  0  0
  101.2210   98.7120  104.0200 C   0  0  0  0  0  0  0  0  0  0  0  0
  1 15  1  0  0  0  0
  1 13  1  0  0  0  0
  2  1  1  0  0  0  0
  3  2  1  0  0  0  0
  4  3  2  0  0  0  0
  5  6  2  0  0  0  0
  5  4  1  0  0  0  0
  6 10  1  0  0  0  0
  7  6  1  0  0  0  0
  8  9  1  0  0  0  0
  8  7  2  0  0  0  0
  9  5  1  0  0  0  0
 10 11  1  0  0  0  0
 10  2  2  0  0  0  0
 11 12  1  0  0  0  0
 12 13  1  0  0  0  0
 13 14  1  1  0  0  0
 15 17  1  0  0  0  0
 16 15  2  0  0  0  0
 18 17  1  0  0  0  0
 19 21  1  6  0  0  0
 19 20  1  0  0  0  0
 19  9  1  0  0  0  0
 22 20  1  0  0  0  0
 23 24  1  0  0  0  0
 23 25  1  1  0  0  0
 23 21  1  0  0  0  0
 24 22  1  0  0  0  0
 25 27  1  0  0  0  0
 26 25  2  0  0  0  0
 28 29  1  1  0  0  0
 28  8  1  0  0  0  0
 29 30  1  0  0  0  0
 31 33  1  0  0  0  0
 31 28  1  0  0  0  0
 32 31  2  0  0  0  0
 33 38  1  0  0  0  0
 34 36  2  0  0  0  0
 34 32  1  0  0  0  0
 35 33  2  0  0  0  0
 36 35  1  0  0  0  0
 37 34  1  0  0  0  0
 38 39  1  0  0  0  0
M  END
>  <minimizedAffinity>
-7.71075916

>  <CNNscore>
0.693238854

>  <CNNaffinity>
7.23830843

$$$$

 OpenBabel08282609023D

 39 43  0  0  1  0  0  0  0  0999 V2000
   94.9320  100.5840  101.8680 N   0  0  0  0  0  0  0  0  0  0  0  0
   96.0060  100.8060  102.8060 C   0  0  0  0  0  0  0  0  0  0  0  0
   96.8170   99.7620  103.2740 C   0  0  0  0  0  0  0  0  0  0  0  0
   97.8730   99.9720  104.1750 C   0  0  0  0  0  0  0  0  0  0  0  0
   98.1030  101.2810  104.6010 C   0  0  0  0  0  0  0  0  0  0  0  0
   97.3260  102.3390  104.1580 C   0  0  0  0  0  0  0  0  0  0  0  0
   97.7600  103.5170  104.6990 N   0  0  0  0  0  0  0  0  0  0  0  0
   98.8130  103.2240  105.4490 C   0  0  0  0  0  0  0  0  0  0  0  0
   99.0260  101.8530  105.4670 N   0  0  0  0  0  0  0  0  0  0  0  0
   96.2600  102.1210  103.2610 C   0  0  0  0  0  0  0  0  0  0  0  0
   95.4360  103.2620  102.7420 C   0  0  0  0  0  0  0  0  0  0  0  0
   93.9980  102.8010  102.7140 C   0  0  0  0  0  0  0  0  0  0  0  0
   93.8400  101.5860  101.7860 C   0  0  2  0  0  0  0  0  0  0  0  0
   92.4710  100.9560  102.1040 C   0  0  0  0  0  0  0  0  0  0  0  0
   95.0010   99.5490  100.9180 C   0  0  0  0  0  0  0  0  0  0  0  0
   95.3080   99.6530   99.7360 O   0  0  0  0  0  0  0  0  0  0  0  0
   94.6350   98.3390  101.4460 O   0  0  0  0  0  0  0  0  0  0  0  0
   93.4040   97.8230  100.9420 C   0  0  0  0  0  0  0  0  0  0  0  0
  100.0140  101.0790  106.2330 C   0  0  2  0  0  0  0  0  0  0  0  0
  100.1660  101.5220  107.7020 C   0  0  0  0  0  0  0  0  0  0  0  0
  101.3440  100.9230  105.4750 C   0  0  0  0  0  0  0  0  0  0  0  0
  101.5990  101.8790  108.0840 C   0  0  0  0  0  0  0  0  0  0  0  0
  102.4500  100.2490  106.2950 C   0  0  1  0  0  0  0  0  0  0  0  0
  102.5760  100.7620  107.7380 C   0  0  0  0  0  0  0  0  0  0  0  0
  102.2250   98.7260  106.3190 C   0  0  0  0  0  0  0  0  0  0  0  0
  102.3910   98.1850  107.4470 O   0  0  0  0  0  0  0  0  0  0  0  0
  101.9170   98.1990  105.2150 O   0  0  0  0  0  0  0  0  0  0  0  0
   99.6260  104.2500  106.1960 C   0  0  2  0  0  0  0  0  0  0  0  0
   98.7140  105.2320  106.6920 O   0  0  0  0  0  0  0  0  0  0  0  0
   98.3190  105.6060  105.8820 H   0  0  0  0  0  0  0  0  0  0  0  0
  100.7120  104.8950  105.3400 C   0  0  0  0  0  0  0  0  0  0  0  0
  101.3910  104.0840  104.4100 C   0  0  0  0  0  0  0  0  0  0  0  0
  101.0360  106.2700  105.4060 C   0  0  0  0  0  0  0  0  0  0  0  0
  102.3610  104.6290  103.5790 C   0  0  0  0  0  0  0  0  0  0  0  0
  102.0260  106.7960  104.5620 C   0  0  0  0  0  0  0  0  0  0  0  0
  102.6840  105.9760  103.6470 C   0  0  0  0  0  0  0  0  0  0  0  0
  102.9940  103.8490  102.6920 F   0  0  0  0  0  0  0  0  0  0  0  0
  100.3600  107.0140  106.3410 O   0  0  0  0  0  0  0  0  0  0  0  0
  100.4280  108.4330  106.2220 C   0  0  0  0  0  0  0  0  0  0  0  0
  1  2  1  0  0  0  0
  2 10  2  0  0  0  0
  2  3  1  0  0  0  0
  3  4  2  0  0  0  0
  4  5  1  0  0  0  0
  5  9  1  0  0  0  0
  6  5  2  0  0  0  0
  6  7  1  0  0  0  0
  7  8  2  0  0  0  0
  8  9  1  0  0  0  0
  8 28  1  0  0  0  0
 10  6  1  0  0  0  0
 11 10  1  0  0  0  0
 12 11  1  0  0  0  0
 13  1  1  0  0  0  0
 13 14  1  1  0  0  0
 13 12  1  0  0  0  0
 15 17  1  0  0  0  0
 15  1  1  0  0  0  0
 16 15  2  0  0  0  0
 18 17  1  0  0  0  0
 19  9  1  6  0  0  0
 19 20  1  0  0  0  0
 20 22  1  0  0  0  0
 21 19  1  0  0  0  0
 21 23  1  0  0  0  0
 23 25  1  1  0  0  0
 23 24  1  0  0  0  0
 24 22  1  0  0  0  0
 25 26  1  0  0  0  0
 27 25  2  0  0  0  0
 28 29  1  6  0  0  0
 30 29  1  0  0  0  0
 31 33  1  0  0  0  0
 31 28  1  0  0  0  0
 32 31  2  0  0  0  0
 33 38  1  0  0  0  0
 34 36  2  0  0  0  0
 34 32  1  0  0  0  0
 35 33  2  0  0  0  0
 36 35  1  0  0  0  0
 37 34  1  0  0  0  0
 39 38  1  0  0  0  0
M  END
>  <minimizedAffinity>
-9.40669537

>  <CNNscore>
0.68109268

>  <CNNaffinity>
7.11010551

$$$$

 OpenBabel08282609023D

 39 43  0  0  1  0  0  0  0  0999 V2000
  104.0360   98.9670  108.2820 N   0  0  0  0  0  0  0  0  0  0  0  0
  103.1120   99.8430  107.6000 C   0  0  0  0  0  0  0  0  0  0  0  0
  103.4050  101.1930  107.3540 C   0  0  0  0  0  0  0  0  0  0  0  0
  102.5180  102.0460  106.6780 C   0  0  0  0  0  0  0  0  0  0  0  0
  101.3080  101.5020  106.2450 C   0  0  0  0  0  0  0  0  0  0  0  0
  100.9850  100.1740  106.4660 C   0  0  0  0  0  0  0  0  0  0  0  0
   99.7620   99.8770  105.9310 N   0  0  0  0  0  0  0  0  0  0  0  0
   99.3250  100.9860  105.3510 C   0  0  0  0  0  0  0  0  0  0  0  0
  100.2150  102.0290  105.5690 N   0  0  0  0  0  0  0  0  0  0  0  0
  101.8750   99.3230  107.1540 C   0  0  0  0  0  0  0  0  0  0  0  0
  101.5560   97.8720  107.3660 C   0  0  0  0  0  0  0  0  0  0  0  0
  101.9960   97.5150  108.7650 C   0  0  0  0  0  0  0  0  0  0  0  0
  103.5080   97.7410  108.9280 C   0  0  2  0  0  0  0  0  0  0  0  0
  103.8020   97.7280  110.4400 C   0  0  0  0  0  0  0  0  0  0  0  0
  105.4260   99.1620  108.1820 C   0  0  0  0  0  0  0  0  0  0  0  0
  106.0090  100.2210  107.9780 O   0  0  0  0  0  0  0  0  0  0  0  0
  106.1210   97.9870  108.2990 O   0  0  0  0  0  0  0  0  0  0  0  0
  105.8790   97.0500  107.2500 C   0  0  0  0  0  0  0  0  0  0  0  0
  100.0930  103.4450  105.1930 C   0  0  2  0  0  0  0  0  0  0  0  0
  101.0880  103.9020  104.1090 C   0  0  0  0  0  0  0  0  0  0  0  0
  100.0240  104.3680  106.4230 C   0  0  0  0  0  0  0  0  0  0  0  0
  101.9370  105.0980  104.5260 C   0  0  0  0  0  0  0  0  0  0  0  0
  100.0420  105.8620  106.0780 C   0  0  1  0  0  0  0  0  0  0  0  0
  101.0820  106.2590  105.0200 C   0  0  0  0  0  0  0  0  0  0  0  0
   98.6450  106.3030  105.6030 C   0  0  0  0  0  0  0  0  0  0  0  0
   97.7870  106.4150  106.5210 O   0  0  0  0  0  0  0  0  0  0  0  0
   98.5190  106.4830  104.3610 O   0  0  0  0  0  0  0  0  0  0  0  0
   98.0230  101.0850  104.5980 C   0  0  2  0  0  0  0  0  0  0  0  0
   98.3400  101.4510  103.2540 O   0  0  0  0  0  0  0  0  0  0  0  0
   98.7670  102.3230  103.3500 H   0  0  0  0  0  0  0  0  0  0  0  0
   97.0420  102.0750  105.2190 C   0  0  0  0  0  0  0  0  0  0  0  0
   97.0040  102.1760  106.6240 C   0  0  0  0  0  0  0  0  0  0  0  0
   96.2080  102.9220  104.4540 C   0  0  0  0  0  0  0  0  0  0  0  0
   96.1580  103.0900  107.2390 C   0  0  0  0  0  0  0  0  0  0  0  0
   95.3560  103.8310  105.0980 C   0  0  0  0  0  0  0  0  0  0  0  0
   95.3340  103.9170  106.4900 C   0  0  0  0  0  0  0  0  0  0  0  0
   96.1360  103.1820  108.5760 F   0  0  0  0  0  0  0  0  0  0  0  0
   96.2690  102.7720  103.0900 O   0  0  0  0  0  0  0  0  0  0  0  0
   95.2960  103.4640  102.3120 C   0  0  0  0  0  0  0  0  0  0  0  0
  1 13  1  0  0  0  0
  2  1  1  0  0  0  0
  3  2  1  0  0  0  0
  4  3  2  0  0  0  0
  5  6  2  0  0  0  0
  5  4  1  0  0  0  0
  6 10  1  0  0  0  0
  7  6  1  0  0  0  0
  8  9  1  0  0  0  0
  8  7  2  0  0  0  0
  9  5  1  0  0  0  0
 10 11  1  0  0  0  0
 10  2  2  0  0  0  0
 11 12  1  0  0  0  0
 12 13  1  0  0  0  0
 13 14  1  1  0  0  0
 15  1  1  0  0  0  0
 15 17  1  0  0  0  0
 16 15  2  0  0  0  0
 18 17  1  0  0  0  0
 19 20  1  6  0  0  0
 19  9  1  0  0  0  0
 19 21  1  0  0  0  0
 20 22  1  0  0  0  0
 22 24  1  0  0  0  0
 23 25  1  6  0  0  0
 23 21  1  0  0  0  0
 24 23  1  0  0  0  0
 25 26  1  0  0  0  0
 27 25  2  0  0  0  0
 28 29  1  6  0  0  0
 28 31  1  0  0  0  0
 28  8  1  0  0  0  0
 29 30  1  0  0  0  0
 31 32  1  0  0  0  0
 32 34  2  0  0  0  0
 33 35  1  0  0  0  0
 33 31  2  0  0  0  0
 34 37  1  0  0  0  0
 35 36  2  0  0  0  0
 36 34  1  0  0  0  0
 38 33  1  0  0  0  0
 39 38  1  0  0  0  0
M  END
>  <minimizedAffinity>
-5.19619846

>  <CNNscore>
0.666581571

>  <CNNaffinity>
7.26296473

$$$$

 OpenBabel08282609023D

 39 43  0  0  1  0  0  0  0  0999 V2000
   94.8970   99.8310  102.4530 N   0  0  0  0  0  0  0  0  0  0  0  0
   96.0590  100.1240  103.2580 C   0  0  0  0  0  0  0  0  0  0  0  0
   96.7270   99.1340  103.9930 C   0  0  0  0  0  0  0  0  0  0  0  0
   97.8670   99.4080  104.7660 C   0  0  0  0  0  0  0  0  0  0  0  0
   98.3310  100.7240  104.7820 C   0  0  0  0  0  0  0  0  0  0  0  0
   97.7000  101.7280  104.0660 C   0  0  0  0  0  0  0  0  0  0  0  0
   98.3530  102.9190  104.2250 N   0  0  0  0  0  0  0  0  0  0  0  0
   99.3990  102.6760  105.0020 C   0  0  0  0  0  0  0  0  0  0  0  0
   99.3940  101.3520  105.4180 N   0  0  0  0  0  0  0  0  0  0  0  0
   96.5500  101.4500  103.2990 C   0  0  0  0  0  0  0  0  0  0  0  0
   95.8800  102.5180  102.4860 C   0  0  0  0  0  0  0  0  0  0  0  0
   94.3890  102.3240  102.6310 C   0  0  0  0  0  0  0  0  0  0  0  0
   93.9740  100.9400  102.1070 C   0  0  2  0  0  0  0  0  0  0  0  0
   92.5490  100.6730  102.6290 C   0  0  0  0  0  0  0  0  0  0  0  0
   94.7320   98.5710  101.8490 C   0  0  0  0  0  0  0  0  0  0  0  0
   95.4150   97.5700  102.0360 O   0  0  0  0  0  0  0  0  0  0  0  0
   93.7030   98.5630  100.9440 O   0  0  0  0  0  0  0  0  0  0  0  0
   93.3020   97.2610  100.5190 C   0  0  0  0  0  0  0  0  0  0  0  0
  100.3010  100.6720  106.3540 C   0  0  2  0  0  0  0  0  0  0  0  0
  100.2970  101.2560  107.7800 C   0  0  0  0  0  0  0  0  0  0  0  0
  101.7040  100.4660  105.7560 C   0  0  0  0  0  0  0  0  0  0  0  0
  101.6790  101.6720  108.2720 C   0  0  0  0  0  0  0  0  0  0  0  0
  102.7230   99.8920  106.7480 C   0  0  1  0  0  0  0  0  0  0  0  0
  102.6940  100.5430  108.1390 C   0  0  0  0  0  0  0  0  0  0  0  0
  102.5060   98.3740  106.8960 C   0  0  0  0  0  0  0  0  0  0  0  0
  102.0970   98.0080  108.0320 O   0  0  0  0  0  0  0  0  0  0  0  0
  102.7750   97.6800  105.8790 O   0  0  0  0  0  0  0  0  0  0  0  0
  100.4160  103.7170  105.3930 C   0  0  2  0  0  0  0  0  0  0  0  0
  101.5620  103.0220  105.8890 O   0  0  0  0  0  0  0  0  0  0  0  0
  101.2190  102.5430  106.6670 H   0  0  0  0  0  0  0  0  0  0  0  0
   99.8920  104.7130  106.4230 C   0  0  0  0  0  0  0  0  0  0  0  0
   99.4380  104.2100  107.6590 C   0  0  0  0  0  0  0  0  0  0  0  0
   99.8820  106.1110  106.2130 C   0  0  0  0  0  0  0  0  0  0  0  0
   98.9880  105.0770  108.6460 C   0  0  0  0  0  0  0  0  0  0  0  0
   99.4140  106.9660  107.2230 C   0  0  0  0  0  0  0  0  0  0  0  0
   98.9710  106.4480  108.4390 C   0  0  0  0  0  0  0  0  0  0  0  0
   98.5660  104.5880  109.8200 F   0  0  0  0  0  0  0  0  0  0  0  0
  100.3160  106.5490  104.9870 O   0  0  0  0  0  0  0  0  0  0  0  0
  101.2990  105.7610  104.3210 C   0  0  0  0  0  0  0  0  0  0  0  0
  1  2  1  0  0  0  0
  2 10  2  0  0  0  0
  2  3  1  0  0  0  0
  3  4  2  0  0  0  0
  4  5  1  0  0  0  0
  5  9  1  0  0  0  0
  6  7  1  0  0  0  0
  6  5  2  0  0  0  0
  7  8  2  0  0  0  0
  8 28  1  0  0  0  0
  8  9  1  0  0  0  0
 10  6  1  0  0  0  0
 11 12  1  0  0  0  0
 11 10  1  0  0  0  0
 13  1  1  0  0  0  0
 13 14  1  1  0  0  0
 13 12  1  0  0  0  0
 15 16  2  0  0  0  0
 15  1  1  0  0  0  0
 17 15  1  0  0  0  0
 18 17  1  0  0  0  0
 19  9  1  6  0  0  0
 19 20  1  0  0  0  0
 20 22  1  0  0  0  0
 21 19  1  0  0  0  0
 21 23  1  0  0  0  0
 23 25  1  1  0  0  0
 23 24  1  0  0  0  0
 24 22  1  0  0  0  0
 25 26  1  0  0  0  0
 27 25  2  0  0  0  0
 28 29  1  1  0  0  0
 28 31  1  0  0  0  0
 29 30  1  0  0  0  0
 31 32  1  0  0  0  0
 32 34  2  0  0  0  0
 33 31  2  0  0  0  0
 33 35  1  0  0  0  0
 34 37  1  0  0  0  0
 35 36  2  0  0  0  0
 36 34  1  0  0  0  0
 38 33  1  0  0  0  0
 39 38  1  0  0  0  0
M  END
>  <minimizedAffinity>
-10.0981903

>  <CNNscore>
0.626414299

>  <CNNaffinity>
7.29113913

$$$$

 OpenBabel08282609023D

 39 43  0  0  1  0  0  0  0  0999 V2000
  102.6530   99.1710  107.7530 N   0  0  0  0  0  0  0  0  0  0  0  0
  101.5550   99.8620  107.1210 C   0  0  0  0  0  0  0  0  0  0  0  0
  100.5720   99.1850  106.3830 C   0  0  0  0  0  0  0  0  0  0  0  0
   99.4920   99.8480  105.7770 C   0  0  0  0  0  0  0  0  0  0  0  0
   99.4200  101.2330  105.9350 C   0  0  0  0  0  0  0  0  0  0  0  0
  100.3690  101.9350  106.6590 C   0  0  0  0  0  0  0  0  0  0  0  0
  100.0680  103.2690  106.6850 N   0  0  0  0  0  0  0  0  0  0  0  0
   98.9320  103.4130  106.0180 C   0  0  0  0  0  0  0  0  0  0  0  0
   98.5260  102.1960  105.4870 N   0  0  0  0  0  0  0  0  0  0  0  0
  101.4570  101.2660  107.2570 C   0  0  0  0  0  0  0  0  0  0  0  0
  102.4710  102.0080  108.0770 C   0  0  0  0  0  0  0  0  0  0  0  0
  103.8260  101.4350  107.7410 C   0  0  0  0  0  0  0  0  0  0  0  0
  103.8790   99.9380  108.0860 C   0  0  2  0  0  0  0  0  0  0  0  0
  105.1180   99.3580  107.3780 C   0  0  0  0  0  0  0  0  0  0  0  0
  102.5080   97.8510  108.2180 C   0  0  0  0  0  0  0  0  0  0  0  0
  101.7170   97.0080  107.8070 O   0  0  0  0  0  0  0  0  0  0  0  0
  103.3500   97.5750  109.2630 O   0  0  0  0  0  0  0  0  0  0  0  0
  103.0150   98.2390  110.4810 C   0  0  0  0  0  0  0  0  0  0  0  0
   97.3840  101.9050  104.6080 C   0  0  2  0  0  0  0  0  0  0  0  0
   96.4130  100.8430  105.1590 C   0  0  0  0  0  0  0  0  0  0  0  0
   97.8190  101.6730  103.1500 C   0  0  0  0  0  0  0  0  0  0  0  0
   96.1890   99.6710  104.2100 C   0  0  0  0  0  0  0  0  0  0  0  0
   96.6800  101.2240  102.2270 C   0  0  1  0  0  0  0  0  0  0  0  0
   95.7720  100.1360  102.8190 C   0  0  0  0  0  0  0  0  0  0  0  0
   95.8210  102.4390  101.8330 C   0  0  0  0  0  0  0  0  0  0  0  0
   95.9230  103.4310  102.6050 O   0  0  0  0  0  0  0  0  0  0  0  0
   95.1090  102.2970  100.8010 O   0  0  0  0  0  0  0  0  0  0  0  0
   98.2200  104.7300  105.8450 C   0  0  2  0  0  0  0  0  0  0  0  0
   97.5100  104.6660  104.6060 O   0  0  0  0  0  0  0  0  0  0  0  0
   98.2180  104.5500  103.9440 H   0  0  0  0  0  0  0  0  0  0  0  0
   99.1600  105.9310  105.8760 C   0  0  0  0  0  0  0  0  0  0  0  0
   98.8010  107.0320  106.6780 C   0  0  0  0  0  0  0  0  0  0  0  0
  100.3890  105.9710  105.1770 C   0  0  0  0  0  0  0  0  0  0  0  0
   99.6410  108.1350  106.7730 C   0  0  0  0  0  0  0  0  0  0  0  0
  101.2160  107.0990  105.2830 C   0  0  0  0  0  0  0  0  0  0  0  0
  100.8430  108.1780  106.0830 C   0  0  0  0  0  0  0  0  0  0  0  0
   99.2920  109.1730  107.5460 F   0  0  0  0  0  0  0  0  0  0  0  0
  100.6850  104.8820  104.3960 O   0  0  0  0  0  0  0  0  0  0  0  0
  102.0520  104.6790  104.0460 C   0  0  0  0  0  0  0  0  0  0  0  0
  1 13  1  0  0  0  0
  1 15  1  0  0  0  0
  2 10  1  0  0  0  0
  2  1  1  0  0  0  0
  3  2  2  0  0  0  0
  4  5  2  0  0  0  0
  4  3  1  0  0  0  0
  5  6  1  0  0  0  0
  6  7  1  0  0  0  0
  6 10  2  0  0  0  0
  8  7  2  0  0  0  0
  9  5  1  0  0  0  0
  9  8  1  0  0  0  0
 10 11  1  0  0  0  0
 12 11  1  0  0  0  0
 12 13  1  0  0  0  0
 13 14  1  6  0  0  0
 15 17  1  0  0  0  0
 16 15  2  0  0  0  0
 17 18  1  0  0  0  0
 19 21  1  6  0  0  0
 19 20  1  0  0  0  0
 19  9  1  0  0  0  0
 22 20  1  0  0  0  0
 23 25  1  1  0  0  0
 23 24  1  0  0  0  0
 23 21  1  0  0  0  0
 24 22  1  0  0  0  0
 25 26  1  0  0  0  0
 27 25  2  0  0  0  0
 28 29  1  6  0  0  0
 28 31  1  0  0  0  0
 28  8  1  0  0  0  0
 30 29  1  0  0  0  0
 31 32  1  0  0  0  0
 32 34  2  0  0  0  0
 33 35  1  0  0  0  0
 33 31  2  0  0  0  0
 34 37  1  0  0  0  0
 35 36  2  0  0  0  0
 36 34  1  0  0  0  0
 38 33  1  0  0  0  0
 39 38  1  0  0  0  0
M  END
>  <minimizedAffinity>
-6.50382328

>  <CNNscore>
0.565371752

>  <CNNaffinity>
7.03024483

$$$$

 OpenBabel08282609023D

 39 43  0  0  1  0  0  0  0  0999 V2000
   98.0620  104.7570  107.3260 N   0  0  0  0  0  0  0  0  0  0  0  0
   97.6030  103.9420  106.2260 C   0  0  0  0  0  0  0  0  0  0  0  0
   96.3420  104.1220  105.6380 C   0  0  0  0  0  0  0  0  0  0  0  0
   95.8950  103.3440  104.5580 C   0  0  0  0  0  0  0  0  0  0  0  0
   96.7620  102.3640  104.0700 C   0  0  0  0  0  0  0  0  0  0  0  0
   98.0150  102.1600  104.6220 C   0  0  0  0  0  0  0  0  0  0  0  0
   98.6790  101.1640  103.9610 N   0  0  0  0  0  0  0  0  0  0  0  0
   97.8780  100.7600  102.9850 C   0  0  0  0  0  0  0  0  0  0  0  0
   96.6630  101.4290  103.0490 N   0  0  0  0  0  0  0  0  0  0  0  0
   98.4560  102.9370  105.7130 C   0  0  0  0  0  0  0  0  0  0  0  0
   99.8270  102.7540  106.2950 C   0  0  0  0  0  0  0  0  0  0  0  0
   99.6940  102.8550  107.7960 C   0  0  0  0  0  0  0  0  0  0  0  0
   99.1430  104.2330  108.1960 C   0  0  2  0  0  0  0  0  0  0  0  0
   98.6850  104.1220  109.6630 C   0  0  0  0  0  0  0  0  0  0  0  0
   97.6360  106.0900  107.4670 C   0  0  0  0  0  0  0  0  0  0  0  0
   96.4840  106.5060  107.4000 O   0  0  0  0  0  0  0  0  0  0  0  0
   98.6850  106.9500  107.6590 O   0  0  0  0  0  0  0  0  0  0  0  0
   99.3610  107.3320  106.4620 C   0  0  0  0  0  0  0  0  0  0  0  0
   95.4550  101.2360  102.2320 C   0  0  2  0  0  0  0  0  0  0  0  0
   94.9560  102.5120  101.5270 C   0  0  0  0  0  0  0  0  0  0  0  0
   94.3620  100.4580  102.9870 C   0  0  0  0  0  0  0  0  0  0  0  0
   93.5040  102.8530  101.8400 C   0  0  0  0  0  0  0  0  0  0  0  0
   93.0350  100.3600  102.2260 C   0  0  1  0  0  0  0  0  0  0  0  0
   92.5730  101.6740  101.5790 C   0  0  0  0  0  0  0  0  0  0  0  0
   93.1350   99.2710  101.1420 C   0  0  0  0  0  0  0  0  0  0  0  0
   94.2180   98.6230  101.1440 O   0  0  0  0  0  0  0  0  0  0  0  0
   92.1390   99.1660  100.3760 O   0  0  0  0  0  0  0  0  0  0  0  0
   98.2440   99.6970  101.9810 C   0  0  2  0  0  0  0  0  0  0  0  0
   98.2510   98.4470  102.6730 O   0  0  0  0  0  0  0  0  0  0  0  0
   98.9480   98.5630  103.3460 H   0  0  0  0  0  0  0  0  0  0  0  0
   99.5850   99.9520  101.2980 C   0  0  0  0  0  0  0  0  0  0  0  0
   99.5990  100.0790   99.8950 C   0  0  0  0  0  0  0  0  0  0  0  0
  100.7980  100.1090  102.0070 C   0  0  0  0  0  0  0  0  0  0  0  0
  100.7860  100.3500   99.2270 C   0  0  0  0  0  0  0  0  0  0  0  0
  101.9860  100.3750  101.3090 C   0  0  0  0  0  0  0  0  0  0  0  0
  101.9770  100.4990   99.9200 C   0  0  0  0  0  0  0  0  0  0  0  0
  100.7850  100.4780   97.8930 F   0  0  0  0  0  0  0  0  0  0  0  0
  100.7350   99.9580  103.3700 O   0  0  0  0  0  0  0  0  0  0  0  0
  101.3080   98.7770  103.9250 C   0  0  0  0  0  0  0  0  0  0  0  0
  1 15  1  0  0  0  0
  1 13  1  0  0  0  0
  2  1  1  0  0  0  0
  3  2  2  0  0  0  0
  4  3  1  0  0  0  0
  5  4  2  0  0  0  0
  5  6  1  0  0  0  0
  6 10  2  0  0  0  0
  7  6  1  0  0  0  0
  8  9  1  0  0  0  0
  8  7  2  0  0  0  0
  9  5  1  0  0  0  0
 10  2  1  0  0  0  0
 10 11  1  0  0  0  0
 11 12  1  0  0  0  0
 12 13  1  0  0  0  0
 13 14  1  1  0  0  0
 15 17  1  0  0  0  0
 16 15  2  0  0  0  0
 18 17  1  0  0  0  0
 19 20  1  1  0  0  0
 19 21  1  0  0  0  0
 19  9  1  0  0  0  0
 20 22  1  0  0  0  0
 23 25  1  6  0  0  0
 23 21  1  0  0  0  0
 24 22  1  0  0  0  0
 24 23  1  0  0  0  0
 25 26  1  0  0  0  0
 27 25  2  0  0  0  0
 28 29  1  1  0  0  0
 28  8  1  0  0  0  0
 29 30  1  0  0  0  0
 31 28  1  0  0  0  0
 31 33  1  0  0  0  0
 32 31  2  0  0  0  0
 33 38  1  0  0  0  0
 34 32  1  0  0  0  0
 34 36  2  0  0  0  0
 35 33  2  0  0  0  0
 36 35  1  0  0  0  0
 37 34  1  0  0  0  0
 38 39  1  0  0  0  0
M  END
>  <minimizedAffinity>
-7.49516821

>  <CNNscore>
0.544213474

>  <CNNaffinity>
7.01199102

$$$$

 OpenBabel08282609023D

 39 43  0  0  1  0  0  0  0  0999 V2000
   95.2080   99.8720  102.4930 N   0  0  0  0  0  0  0  0  0  0  0  0
   96.3510  100.1660  103.3250 C   0  0  0  0  0  0  0  0  0  0  0  0
   97.0310   99.1680  104.0390 C   0  0  0  0  0  0  0  0  0  0  0  0
   98.1520   99.4430  104.8380 C   0  0  0  0  0  0  0  0  0  0  0  0
   98.5850  100.7690  104.9030 C   0  0  0  0  0  0  0  0  0  0  0  0
   97.9410  101.7810  104.2100 C   0  0  0  0  0  0  0  0  0  0  0  0
   98.5620  102.9810  104.4180 N   0  0  0  0  0  0  0  0  0  0  0  0
   99.6020  102.7370  105.2030 C   0  0  0  0  0  0  0  0  0  0  0  0
   99.6220  101.4000  105.5760 N   0  0  0  0  0  0  0  0  0  0  0  0
   96.8090  101.5000  103.4160 C   0  0  0  0  0  0  0  0  0  0  0  0
   96.1260  102.5790  102.6280 C   0  0  0  0  0  0  0  0  0  0  0  0
   94.6390  102.3450  102.7420 C   0  0  0  0  0  0  0  0  0  0  0  0
   94.2640  100.9700  102.1680 C   0  0  2  0  0  0  0  0  0  0  0  0
   92.8390  100.6530  102.6590 C   0  0  0  0  0  0  0  0  0  0  0  0
   95.0830   98.6290  101.8460 C   0  0  0  0  0  0  0  0  0  0  0  0
   95.6540   97.5850  102.1410 O   0  0  0  0  0  0  0  0  0  0  0  0
   94.2460   98.6920  100.7640 O   0  0  0  0  0  0  0  0  0  0  0  0
   93.2860   97.6380  100.6970 C   0  0  0  0  0  0  0  0  0  0  0  0
  100.5320  100.7110  106.5040 C   0  0  2  0  0  0  0  0  0  0  0  0
  100.5950  101.3370  107.9110 C   0  0  0  0  0  0  0  0  0  0  0  0
  101.9050  100.4310  105.8700 C   0  0  0  0  0  0  0  0  0  0  0  0
  102.0080  101.7100  108.3480 C   0  0  0  0  0  0  0  0  0  0  0  0
  102.9310   99.8460  106.8470 C   0  0  1  0  0  0  0  0  0  0  0  0
  102.9730  100.5380  108.2180 C   0  0  0  0  0  0  0  0  0  0  0  0
  102.6590   98.3430  107.0490 C   0  0  0  0  0  0  0  0  0  0  0  0
  102.7540   97.6450  106.0020 O   0  0  0  0  0  0  0  0  0  0  0  0
  102.3600   97.9920  108.2220 O   0  0  0  0  0  0  0  0  0  0  0  0
  100.5880  103.7880  105.6440 C   0  0  2  0  0  0  0  0  0  0  0  0
   99.8330  104.8870  106.1580 O   0  0  0  0  0  0  0  0  0  0  0  0
   99.3100  105.1830  105.3890 H   0  0  0  0  0  0  0  0  0  0  0  0
  101.5230  104.2410  104.5260 C   0  0  0  0  0  0  0  0  0  0  0  0
  102.0490  105.5470  104.5920 C   0  0  0  0  0  0  0  0  0  0  0  0
  101.9190  103.4010  103.4600 C   0  0  0  0  0  0  0  0  0  0  0  0
  102.9360  105.9960  103.6220 C   0  0  0  0  0  0  0  0  0  0  0  0
  102.8100  103.8800  102.4870 C   0  0  0  0  0  0  0  0  0  0  0  0
  103.3200  105.1760  102.5720 C   0  0  0  0  0  0  0  0  0  0  0  0
  103.4350  107.2370  103.6990 F   0  0  0  0  0  0  0  0  0  0  0  0
  101.3660  102.1450  103.4310 O   0  0  0  0  0  0  0  0  0  0  0  0
  101.6070  101.3500  102.2730 C   0  0  0  0  0  0  0  0  0  0  0  0
  1  2  1  0  0  0  0
  2 10  2  0  0  0  0
  2  3  1  0  0  0  0
  3  4  2  0  0  0  0
  4  5  1  0  0  0  0
  5  9  1  0  0  0  0
  6  7  1  0  0  0  0
  6  5  2  0  0  0  0
  7  8  2  0  0  0  0
  8  9  1  0  0  0  0
  8 28  1  0  0  0  0
 10  6  1  0  0  0  0
 11 12  1  0  0  0  0
 11 10  1  0  0  0  0
 13  1  1  0  0  0  0
 13 14  1  1  0  0  0
 13 12  1  0  0  0  0
 15 16  2  0  0  0  0
 15  1  1  0  0  0  0
 17 15  1  0  0  0  0
 18 17  1  0  0  0  0
 19  9  1  6  0  0  0
 19 20  1  0  0  0  0
 20 22  1  0  0  0  0
 21 19  1  0  0  0  0
 21 23  1  0  0  0  0
 23 25  1  1  0  0  0
 23 24  1  0  0  0  0
 24 22  1  0  0  0  0
 25 27  1  0  0  0  0
 26 25  2  0  0  0  0
 28 29  1  6  0  0  0
 30 29  1  0  0  0  0
 31 32  1  0  0  0  0
 31 28  1  0  0  0  0
 33 31  2  0  0  0  0
 34 37  1  0  0  0  0
 34 32  2  0  0  0  0
 35 36  2  0  0  0  0
 35 33  1  0  0  0  0
 36 34  1  0  0  0  0
 38 33  1  0  0  0  0
 39 38  1  0  0  0  0
M  END
>  <minimizedAffinity>
-8.09029484

>  <CNNscore>
0.488080472

>  <CNNaffinity>
6.70350027

$$$$

 OpenBabel08282609023D

 39 43  0  0  1  0  0  0  0  0999 V2000
   99.6950  101.0060  105.2750 N   0  0  0  0  0  0  0  0  0  0  0  0
   98.3380  100.6730  104.9120 C   0  0  0  0  0  0  0  0  0  0  0  0
   97.3120  100.5760  105.8640 C   0  0  0  0  0  0  0  0  0  0  0  0
   95.9860  100.2680  105.5170 C   0  0  0  0  0  0  0  0  0  0  0  0
   95.7090  100.0570  104.1650 C   0  0  0  0  0  0  0  0  0  0  0  0
   96.6950  100.1480  103.1960 C   0  0  0  0  0  0  0  0  0  0  0  0
   96.1730   99.9220  101.9530 N   0  0  0  0  0  0  0  0  0  0  0  0
   94.8730   99.7210  102.1190 C   0  0  0  0  0  0  0  0  0  0  0  0
   94.5520   99.7360  103.4690 N   0  0  0  0  0  0  0  0  0  0  0  0
   98.0260  100.4480  103.5510 C   0  0  0  0  0  0  0  0  0  0  0  0
   99.0960  100.5890  102.5080 C   0  0  0  0  0  0  0  0  0  0  0  0
  100.3430   99.9360  103.0540 C   0  0  0  0  0  0  0  0  0  0  0  0
  100.7910  100.6290  104.3500 C   0  0  2  0  0  0  0  0  0  0  0  0
  101.8070   99.6920  105.0300 C   0  0  0  0  0  0  0  0  0  0  0  0
   99.9670  101.8320  106.3810 C   0  0  0  0  0  0  0  0  0  0  0  0
  100.3970  101.4800  107.4750 O   0  0  0  0  0  0  0  0  0  0  0  0
   99.6540  103.1430  106.1360 O   0  0  0  0  0  0  0  0  0  0  0  0
  100.5760  103.8210  105.2830 C   0  0  0  0  0  0  0  0  0  0  0  0
   93.2580   99.4680  104.1160 C   0  0  2  0  0  0  0  0  0  0  0  0
   93.3330   99.3240  105.6490 C   0  0  0  0  0  0  0  0  0  0  0  0
   92.4770   98.3470  103.4090 C   0  0  0  0  0  0  0  0  0  0  0  0
   92.7560   98.0100  106.1650 C   0  0  0  0  0  0  0  0  0  0  0  0
   91.1900   97.9360  104.1340 C   0  0  1  0  0  0  0  0  0  0  0  0
   91.3400   97.7700  105.6540 C   0  0  0  0  0  0  0  0  0  0  0  0
   90.0800   98.9630  103.8450 C   0  0  0  0  0  0  0  0  0  0  0  0
   88.9080   98.4990  103.8830 O   0  0  0  0  0  0  0  0  0  0  0  0
   90.4700  100.1360  103.5920 O   0  0  0  0  0  0  0  0  0  0  0  0
   93.9080   99.4780  100.9880 C   0  0  2  0  0  0  0  0  0  0  0  0
   94.6760   99.4060   99.7850 O   0  0  0  0  0  0  0  0  0  0  0  0
   95.0870  100.2890   99.7240 H   0  0  0  0  0  0  0  0  0  0  0  0
   92.8240  100.5470  100.8820 C   0  0  0  0  0  0  0  0  0  0  0  0
   93.0500  101.7840  101.5170 C   0  0  0  0  0  0  0  0  0  0  0  0
   91.6310  100.3690  100.1440 C   0  0  0  0  0  0  0  0  0  0  0  0
   92.1130  102.8050  101.4180 C   0  0  0  0  0  0  0  0  0  0  0  0
   90.6960  101.4130  100.0660 C   0  0  0  0  0  0  0  0  0  0  0  0
   90.9400  102.6300  100.7000 C   0  0  0  0  0  0  0  0  0  0  0  0
   92.3430  103.9800  102.0200 F   0  0  0  0  0  0  0  0  0  0  0  0
   91.4500   99.1400   99.5590 O   0  0  0  0  0  0  0  0  0  0  0  0
   90.1120   98.6610   99.4430 C   0  0  0  0  0  0  0  0  0  0  0  0
  1 15  1  0  0  0  0
  2  1  1  0  0  0  0
  2  3  1  0  0  0  0
  4  3  2  0  0  0  0
  5  4  1  0  0  0  0
  6 10  1  0  0  0  0
  6  5  2  0  0  0  0
  7  8  2  0  0  0  0
  7  6  1  0  0  0  0
  8  9  1  0  0  0  0
  9 19  1  0  0  0  0
  9  5  1  0  0  0  0
 10  2  2  0  0  0  0
 11 12  1  0  0  0  0
 11 10  1  0  0  0  0
 12 13  1  0  0  0  0
 13 14  1  1  0  0  0
 13  1  1  0  0  0  0
 15 16  2  0  0  0  0
 17 15  1  0  0  0  0
 18 17  1  0  0  0  0
 19 21  1  6  0  0  0
 19 20  1  0  0  0  0
 20 22  1  0  0  0  0
 21 23  1  0  0  0  0
 23 25  1  1  0  0  0
 23 24  1  0  0  0  0
 24 22  1  0  0  0  0
 25 26  1  0  0  0  0
 27 25  2  0  0  0  0
 28 29  1  6  0  0  0
 28  8  1  0  0  0  0
 30 29  1  0  0  0  0
 31 28  1  0  0  0  0
 31 32  1  0  0  0  0
 33 31  2  0  0  0  0
 34 32  2  0  0  0  0
 34 37  1  0  0  0  0
 35 33  1  0  0  0  0
 35 36  2  0  0  0  0
 36 34  1  0  0  0  0
 38 33  1  0  0  0  0
 39 38  1  0  0  0  0
M  END
>  <minimizedAffinity>
-5.56411791

>  <CNNscore>
0.484519839

>  <CNNaffinity>
6.61901999

$$$$

 OpenBabel08282609023D

 39 43  0  0  1  0  0  0  0  0999 V2000
   99.4410  101.8520  105.3720 N   0  0  0  0  0  0  0  0  0  0  0  0
   98.1460  101.3190  105.0210 C   0  0  0  0  0  0  0  0  0  0  0  0
   97.0810  101.2790  105.9330 C   0  0  0  0  0  0  0  0  0  0  0  0
   95.8150  100.7760  105.5950 C   0  0  0  0  0  0  0  0  0  0  0  0
   95.6380  100.3070  104.2920 C   0  0  0  0  0  0  0  0  0  0  0  0
   96.6640  100.3330  103.3620 C   0  0  0  0  0  0  0  0  0  0  0  0
   96.2390   99.8410  102.1590 N   0  0  0  0  0  0  0  0  0  0  0  0
   94.9580   99.5350  102.3070 C   0  0  0  0  0  0  0  0  0  0  0  0
   94.5590   99.7490  103.6190 N   0  0  0  0  0  0  0  0  0  0  0  0
   97.9370  100.8300  103.7100 C   0  0  0  0  0  0  0  0  0  0  0  0
   99.0460  100.9020  102.7020 C   0  0  0  0  0  0  0  0  0  0  0  0
  100.3180  100.4890  103.4040 C   0  0  0  0  0  0  0  0  0  0  0  0
  100.6200  101.4400  104.5730 C   0  0  2  0  0  0  0  0  0  0  0  0
  101.6820  100.7480  105.4490 C   0  0  0  0  0  0  0  0  0  0  0  0
   99.5670  102.8810  106.3230 C   0  0  0  0  0  0  0  0  0  0  0  0
  100.2050  103.9210  106.2040 O   0  0  0  0  0  0  0  0  0  0  0  0
   98.9070  102.5900  107.4890 O   0  0  0  0  0  0  0  0  0  0  0  0
   98.3620  103.7270  108.1580 C   0  0  0  0  0  0  0  0  0  0  0  0
   93.2630   99.4610  104.2520 C   0  0  2  0  0  0  0  0  0  0  0  0
   93.3350   99.2450  105.7760 C   0  0  0  0  0  0  0  0  0  0  0  0
   92.4750   98.3790  103.4930 C   0  0  0  0  0  0  0  0  0  0  0  0
   92.7480   97.9140  106.2310 C   0  0  0  0  0  0  0  0  0  0  0  0
   91.1840   97.9440  104.1970 C   0  0  1  0  0  0  0  0  0  0  0  0
   91.3310   97.7070  105.7080 C   0  0  0  0  0  0  0  0  0  0  0  0
   90.0820   98.9920  103.9550 C   0  0  0  0  0  0  0  0  0  0  0  0
   88.9040   98.5510  104.0530 O   0  0  0  0  0  0  0  0  0  0  0  0
   90.4820  100.1550  103.6750 O   0  0  0  0  0  0  0  0  0  0  0  0
   94.0880   98.9990  101.2000 C   0  0  2  0  0  0  0  0  0  0  0  0
   94.9350   98.7590  100.0750 O   0  0  0  0  0  0  0  0  0  0  0  0
   95.2860   99.6440   99.8610 H   0  0  0  0  0  0  0  0  0  0  0  0
   92.9400   99.9330  100.8310 C   0  0  0  0  0  0  0  0  0  0  0  0
   91.6900   99.3580  100.5270 C   0  0  0  0  0  0  0  0  0  0  0  0
   93.0600  101.3420  100.8240 C   0  0  0  0  0  0  0  0  0  0  0  0
   90.6010  100.1660  100.2230 C   0  0  0  0  0  0  0  0  0  0  0  0
   91.9470  102.1370  100.5060 C   0  0  0  0  0  0  0  0  0  0  0  0
   90.7190  101.5470  100.2100 C   0  0  0  0  0  0  0  0  0  0  0  0
   89.4160   99.6070   99.9430 F   0  0  0  0  0  0  0  0  0  0  0  0
   94.3020  101.8530  101.1090 O   0  0  0  0  0  0  0  0  0  0  0  0
   94.3560  103.0460  101.8860 C   0  0  0  0  0  0  0  0  0  0  0  0
  1 15  1  0  0  0  0
  2  1  1  0  0  0  0
  2  3  1  0  0  0  0
  4  3  2  0  0  0  0
  5  4  1  0  0  0  0
  6 10  1  0  0  0  0
  6  5  2  0  0  0  0
  7  8  2  0  0  0  0
  7  6  1  0  0  0  0
  8  9  1  0  0  0  0
  9 19  1  0  0  0  0
  9  5  1  0  0  0  0
 10  2  2  0  0  0  0
 11 12  1  0  0  0  0
 11 10  1  0  0  0  0
 12 13  1  0  0  0  0
 13  1  1  0  0  0  0
 13 14  1  1  0  0  0
 15 17  1  0  0  0  0
 16 15  2  0  0  0  0
 17 18  1  0  0  0  0
 19 21  1  6  0  0  0
 19 20  1  0  0  0  0
 20 22  1  0  0  0  0
 21 23  1  0  0  0  0
 23 25  1  1  0  0  0
 23 24  1  0  0  0  0
 24 22  1  0  0  0  0
 25 26  1  0  0  0  0
 27 25  2  0  0  0  0
 28 29  1  6  0  0  0
 28  8  1  0  0  0  0
 30 29  1  0  0  0  0
 31 28  1  0  0  0  0
 32 31  2  0  0  0  0
 33 31  1  0  0  0  0
 33 38  1  0  0  0  0
 34 32  1  0  0  0  0
 35 33  2  0  0  0  0
 36 34  2  0  0  0  0
 36 35  1  0  0  0  0
 37 34  1  0  0  0  0
 38 39  1  0  0  0  0
M  END
>  <minimizedAffinity>
-7.37432671

>  <CNNscore>
0.46538043

>  <CNNaffinity>
6.47071981

$$$$
