
 OpenBabel08282605193D

 26 28  0  0  1  0  0  0  0  0999 V2000
   97.3350  103.2820  107.3640 C   0  0  0  0  0  0  0  0  0  0  0  0
   98.5590  103.6000  106.5730 C   0  0  0  0  0  0  0  0  0  0  0  0
   98.7430  104.6610  105.7580 C   0  0  0  0  0  0  0  0  0  0  0  0
  100.1100  104.5780  105.2200 C   0  0  2  0  0  0  0  0  0  0  0  0
  100.7610  105.4440  104.3510 C   0  0  0  0  0  0  0  0  0  0  0  0
  102.0590  105.1300  103.9680 C   0  0  0  0  0  0  0  0  0  0  0  0
  102.7140  105.9370  103.1220 F   0  0  0  0  0  0  0  0  0  0  0  0
  102.7030  103.9800  104.4380 C   0  0  0  0  0  0  0  0  0  0  0  0
  102.0480  103.1170  105.3210 C   0  0  0  0  0  0  0  0  0  0  0  0
  100.7540  103.4280  105.7150 C   0  0  0  0  0  0  0  0  0  0  0  0
   99.7790  102.7810  106.6100 C   0  0  0  0  0  0  0  0  0  0  0  0
   99.9150  101.6710  107.3570 C   0  0  0  0  0  0  0  0  0  0  0  0
   97.7810  105.7400  105.3740 C   0  0  0  0  0  0  0  0  0  0  0  0
   96.3580  105.2020  105.2210 C   0  0  0  0  0  0  0  0  0  0  0  0
   96.0870  104.6920  104.0960 O   0  0  0  0  0  0  0  0  0  0  0  0
   95.6060  105.3740  106.2260 O   0  0  0  0  0  0  0  0  0  0  0  0
  101.1030  100.8280  107.4830 C   0  0  0  0  0  0  0  0  0  0  0  0
  101.2700   99.7230  106.6400 C   0  0  0  0  0  0  0  0  0  0  0  0
  102.0690  101.1160  108.4550 C   0  0  0  0  0  0  0  0  0  0  0  0
  102.3910   98.9020  106.7720 C   0  0  0  0  0  0  0  0  0  0  0  0
  103.1950  100.3010  108.5910 C   0  0  0  0  0  0  0  0  0  0  0  0
  103.3400   99.1880  107.7570 C   0  0  0  0  0  0  0  0  0  0  0  0
  104.7580   98.1380  107.9470 S   0  0  0  0  0  0  0  0  0  0  0  0
  104.7570   97.1830  106.8540 O   0  0  0  0  0  0  0  0  0  0  0  0
  105.9090   98.9880  108.1880 O   0  0  0  0  0  0  0  0  0  0  0  0
  104.4050   97.2520  109.4420 C   0  0  0  0  0  0  0  0  0  0  0  0
  2 11  1  0  0  0  0
  2  1  1  0  0  0  0
  3  2  2  0  0  0  0
  4  5  1  6  0  0  0
  4 10  1  0  0  0  0
  4  3  1  0  0  0  0
  6  5  2  0  0  0  0
  6  8  1  0  0  0  0
  7  6  1  0  0  0  0
  8  9  2  0  0  0  0
  9 10  1  0  0  0  0
 10 11  2  0  0  0  0
 11 12  1  0  0  0  0
 12 17  1  0  0  0  0
 13  3  1  0  0  0  0
 14 13  1  0  0  0  0
 14 16  1  0  0  0  0
 15 14  2  0  0  0  0
 17 19  1  0  0  0  0
 18 20  1  0  0  0  0
 18 17  2  0  0  0  0
 19 21  2  0  0  0  0
 20 22  2  0  0  0  0
 22 23  1  0  0  0  0
 22 21  1  0  0  0  0
 23 25  2  0  0  0  0
 23 26  1  0  0  0  0
 24 23  2  0  0  0  0
M  END
>  <minimizedAffinity>
-8.82918262

>  <CNNscore>
0.768597901

>  <CNNaffinity>
6.89402914

$$$$

 OpenBabel08282605193D

 26 28  0  0  1  0  0  0  0  0999 V2000
   97.1130  101.4640  104.0360 C   0  0  0  0  0  0  0  0  0  0  0  0
   97.7680  102.1910  105.1640 C   0  0  0  0  0  0  0  0  0  0  0  0
   97.3380  103.3280  105.7510 C   0  0  0  0  0  0  0  0  0  0  0  0
   98.2790  103.6540  106.8340 C   0  0  2  0  0  0  0  0  0  0  0  0
   98.2520  104.7200  107.7240 C   0  0  0  0  0  0  0  0  0  0  0  0
   99.2810  104.8210  108.6520 C   0  0  0  0  0  0  0  0  0  0  0  0
   99.2940  105.8440  109.5190 F   0  0  0  0  0  0  0  0  0  0  0  0
  100.3180  103.8840  108.6990 C   0  0  0  0  0  0  0  0  0  0  0  0
  100.3360  102.8060  107.8100 C   0  0  0  0  0  0  0  0  0  0  0  0
   99.3070  102.6930  106.8850 C   0  0  0  0  0  0  0  0  0  0  0  0
   98.9930  101.7200  105.8240 C   0  0  0  0  0  0  0  0  0  0  0  0
   99.6440  100.5930  105.4820 C   0  0  0  0  0  0  0  0  0  0  0  0
   96.1680  104.1910  105.4030 C   0  0  0  0  0  0  0  0  0  0  0  0
   95.2770  104.4550  106.6170 C   0  0  0  0  0  0  0  0  0  0  0  0
   95.1190  105.6730  106.9220 O   0  0  0  0  0  0  0  0  0  0  0  0
   94.8400  103.4200  107.2010 O   0  0  0  0  0  0  0  0  0  0  0  0
  100.8390  100.0350  106.1130 C   0  0  0  0  0  0  0  0  0  0  0  0
  101.5920   99.0610  105.4480 C   0  0  0  0  0  0  0  0  0  0  0  0
  101.2250  100.4630  107.3890 C   0  0  0  0  0  0  0  0  0  0  0  0
  102.7210   98.5090  106.0550 C   0  0  0  0  0  0  0  0  0  0  0  0
  102.3550   99.9180  108.0030 C   0  0  0  0  0  0  0  0  0  0  0  0
  103.0860   98.9300  107.3360 C   0  0  0  0  0  0  0  0  0  0  0  0
  104.5070   98.2190  108.1270 S   0  0  0  0  0  0  0  0  0  0  0  0
  104.9210   97.0650  107.3490 O   0  0  0  0  0  0  0  0  0  0  0  0
  105.4390   99.2920  108.4130 O   0  0  0  0  0  0  0  0  0  0  0  0
  103.8560   97.6290  109.6680 C   0  0  0  0  0  0  0  0  0  0  0  0
  1  2  1  0  0  0  0
  2  3  2  0  0  0  0
  2 11  1  0  0  0  0
  3  4  1  0  0  0  0
  4 10  1  0  0  0  0
  4  5  1  6  0  0  0
  5  6  2  0  0  0  0
  6  8  1  0  0  0  0
  6  7  1  0  0  0  0
  9  8  2  0  0  0  0
 10  9  1  0  0  0  0
 11 10  2  0  0  0  0
 12 11  1  0  0  0  0
 12 17  1  0  0  0  0
 13  3  1  0  0  0  0
 13 14  1  0  0  0  0
 14 15  2  0  0  0  0
 14 16  1  0  0  0  0
 17 19  1  0  0  0  0
 18 20  1  0  0  0  0
 18 17  2  0  0  0  0
 19 21  2  0  0  0  0
 20 22  2  0  0  0  0
 22 21  1  0  0  0  0
 22 23  1  0  0  0  0
 23 25  2  0  0  0  0
 23 26  1  0  0  0  0
 24 23  2  0  0  0  0
M  END
>  <minimizedAffinity>
-8.78307915

>  <CNNscore>
0.716019332

>  <CNNaffinity>
6.87391329

$$$$

 OpenBabel08282605193D

 26 28  0  0  1  0  0  0  0  0999 V2000
   98.7220  104.3810  105.3160 C   0  0  0  0  0  0  0  0  0  0  0  0
   98.5500  102.9380  104.9790 C   0  0  0  0  0  0  0  0  0  0  0  0
   97.5940  102.3980  104.1930 C   0  0  0  0  0  0  0  0  0  0  0  0
   97.8400  100.9490  104.1220 C   0  0  2  0  0  0  0  0  0  0  0  0
   97.1330   99.9750  103.4280 C   0  0  0  0  0  0  0  0  0  0  0  0
   97.5570   98.6570  103.5410 C   0  0  0  0  0  0  0  0  0  0  0  0
   96.8910   97.6890  102.8950 F   0  0  0  0  0  0  0  0  0  0  0  0
   98.6610   98.3080  104.3260 C   0  0  0  0  0  0  0  0  0  0  0  0
   99.3770   99.2920  105.0130 C   0  0  0  0  0  0  0  0  0  0  0  0
   98.9650  100.6120  104.8990 C   0  0  0  0  0  0  0  0  0  0  0  0
   99.4590  101.8840  105.4540 C   0  0  0  0  0  0  0  0  0  0  0  0
  100.5310  102.1150  106.2340 C   0  0  0  0  0  0  0  0  0  0  0  0
   96.4340  103.0600  103.5210 C   0  0  0  0  0  0  0  0  0  0  0  0
   95.8800  104.2160  104.3550 C   0  0  0  0  0  0  0  0  0  0  0  0
   95.2830  103.8830  105.4180 O   0  0  0  0  0  0  0  0  0  0  0  0
   96.0460  105.3690  103.8560 O   0  0  0  0  0  0  0  0  0  0  0  0
  101.5050  101.1340  106.7130 C   0  0  0  0  0  0  0  0  0  0  0  0
  102.0770  101.2780  107.9820 C   0  0  0  0  0  0  0  0  0  0  0  0
  101.8760  100.0580  105.8980 C   0  0  0  0  0  0  0  0  0  0  0  0
  103.0240  100.3570  108.4340 C   0  0  0  0  0  0  0  0  0  0  0  0
  102.8200   99.1310  106.3440 C   0  0  0  0  0  0  0  0  0  0  0  0
  103.4010   99.2970  107.6050 C   0  0  0  0  0  0  0  0  0  0  0  0
  104.6200   98.1330  108.1620 S   0  0  0  0  0  0  0  0  0  0  0  0
  104.7370   97.0930  107.1560 O   0  0  0  0  0  0  0  0  0  0  0  0
  105.7840   98.8830  108.5930 O   0  0  0  0  0  0  0  0  0  0  0  0
  103.8630   97.4160  109.5970 C   0  0  0  0  0  0  0  0  0  0  0  0
  2  1  1  0  0  0  0
  2 11  1  0  0  0  0
  3  2  2  0  0  0  0
  4  5  1  1  0  0  0
  4  3  1  0  0  0  0
  4 10  1  0  0  0  0
  5  6  2  0  0  0  0
  6  8  1  0  0  0  0
  7  6  1  0  0  0  0
  8  9  2  0  0  0  0
 10  9  1  0  0  0  0
 10 11  2  0  0  0  0
 11 12  1  0  0  0  0
 12 17  1  0  0  0  0
 13  3  1  0  0  0  0
 13 14  1  0  0  0  0
 14 15  1  0  0  0  0
 16 14  2  0  0  0  0
 17 18  1  0  0  0  0
 18 20  2  0  0  0  0
 19 21  1  0  0  0  0
 19 17  2  0  0  0  0
 21 22  2  0  0  0  0
 22 23  1  0  0  0  0
 22 20  1  0  0  0  0
 23 25  2  0  0  0  0
 23 26  1  0  0  0  0
 24 23  2  0  0  0  0
M  END
>  <minimizedAffinity>
-8.10098648

>  <CNNscore>
0.685970008

>  <CNNaffinity>
6.62089109

$$$$

 OpenBabel08282605193D

 26 28  0  0  1  0  0  0  0  0999 V2000
  101.0890  105.5030  103.9810 C   0  0  0  0  0  0  0  0  0  0  0  0
  100.2250  104.8770  105.0240 C   0  0  0  0  0  0  0  0  0  0  0  0
   99.0000  105.2890  105.4140 C   0  0  0  0  0  0  0  0  0  0  0  0
   98.5190  104.3500  106.4400 C   0  0  2  0  0  0  0  0  0  0  0  0
   97.3130  104.3510  107.1290 C   0  0  0  0  0  0  0  0  0  0  0  0
   97.1030  103.3570  108.0770 C   0  0  0  0  0  0  0  0  0  0  0  0
   95.9550  103.3340  108.7700 F   0  0  0  0  0  0  0  0  0  0  0  0
   98.0680  102.3800  108.3390 C   0  0  0  0  0  0  0  0  0  0  0  0
   99.2760  102.3750  107.6350 C   0  0  0  0  0  0  0  0  0  0  0  0
   99.4900  103.3590  106.6800 C   0  0  0  0  0  0  0  0  0  0  0  0
  100.6030  103.6640  105.7630 C   0  0  0  0  0  0  0  0  0  0  0  0
  101.7570  103.0000  105.5740 C   0  0  0  0  0  0  0  0  0  0  0  0
   98.2200  106.4880  104.9790 C   0  0  0  0  0  0  0  0  0  0  0  0
   96.9780  106.0970  104.1770 C   0  0  0  0  0  0  0  0  0  0  0  0
   96.2260  105.2390  104.7230 O   0  0  0  0  0  0  0  0  0  0  0  0
   96.8750  106.6450  103.0400 O   0  0  0  0  0  0  0  0  0  0  0  0
  102.1880  101.7680  106.2340 C   0  0  0  0  0  0  0  0  0  0  0  0
  101.8650  100.5250  105.6780 C   0  0  0  0  0  0  0  0  0  0  0  0
  102.9130  101.8290  107.4310 C   0  0  0  0  0  0  0  0  0  0  0  0
  102.2540   99.3460  106.3160 C   0  0  0  0  0  0  0  0  0  0  0  0
  103.3080  100.6540  108.0740 C   0  0  0  0  0  0  0  0  0  0  0  0
  102.9610   99.4190  107.5190 C   0  0  0  0  0  0  0  0  0  0  0  0
  103.4420   97.9260  108.3500 S   0  0  0  0  0  0  0  0  0  0  0  0
  102.2490   97.1260  108.5590 O   0  0  0  0  0  0  0  0  0  0  0  0
  104.5880   97.3790  107.6500 O   0  0  0  0  0  0  0  0  0  0  0  0
  103.9890   98.5070  109.9340 C   0  0  0  0  0  0  0  0  0  0  0  0
  1  2  1  0  0  0  0
  2  3  2  0  0  0  0
  2 11  1  0  0  0  0
  3  4  1  0  0  0  0
  4 10  1  0  0  0  0
  4  5  1  1  0  0  0
  5  6  2  0  0  0  0
  6  8  1  0  0  0  0
  6  7  1  0  0  0  0
  9  8  2  0  0  0  0
 10  9  1  0  0  0  0
 11 10  2  0  0  0  0
 12 11  1  0  0  0  0
 12 17  1  0  0  0  0
 13  3  1  0  0  0  0
 14 15  1  0  0  0  0
 14 13  1  0  0  0  0
 16 14  2  0  0  0  0
 17 19  1  0  0  0  0
 18 17  2  0  0  0  0
 18 20  1  0  0  0  0
 19 21  2  0  0  0  0
 20 22  2  0  0  0  0
 22 21  1  0  0  0  0
 22 23  1  0  0  0  0
 23 24  2  0  0  0  0
 23 26  1  0  0  0  0
 25 23  2  0  0  0  0
M  END
>  <minimizedAffinity>
-8.62541199

>  <CNNscore>
0.685585678

>  <CNNaffinity>
6.89034796

$$$$

 OpenBabel08282605193D

 26 28  0  0  1  0  0  0  0  0999 V2000
   98.6920  105.2250  107.2400 C   0  0  0  0  0  0  0  0  0  0  0  0
   98.7130  104.0680  106.2980 C   0  0  0  0  0  0  0  0  0  0  0  0
   97.9510  103.9080  105.1950 C   0  0  0  0  0  0  0  0  0  0  0  0
   98.3410  102.6370  104.5640 C   0  0  2  0  0  0  0  0  0  0  0  0
   97.8500  102.0500  103.4050 C   0  0  0  0  0  0  0  0  0  0  0  0
   98.3720  100.8200  103.0250 C   0  0  0  0  0  0  0  0  0  0  0  0
   97.9140  100.2180  101.9180 F   0  0  0  0  0  0  0  0  0  0  0  0
   99.3630  100.1820  103.7780 C   0  0  0  0  0  0  0  0  0  0  0  0
   99.8630  100.7810  104.9380 C   0  0  0  0  0  0  0  0  0  0  0  0
   99.3530  102.0140  105.3190 C   0  0  0  0  0  0  0  0  0  0  0  0
   99.6290  102.9270  106.4420 C   0  0  0  0  0  0  0  0  0  0  0  0
  100.5340  102.8120  107.4300 C   0  0  0  0  0  0  0  0  0  0  0  0
   96.8580  104.7780  104.6640 C   0  0  0  0  0  0  0  0  0  0  0  0
   95.4810  104.3150  105.1420 C   0  0  0  0  0  0  0  0  0  0  0  0
   95.1270  104.7430  106.2790 O   0  0  0  0  0  0  0  0  0  0  0  0
   94.8780  103.5200  104.3620 O   0  0  0  0  0  0  0  0  0  0  0  0
  101.5060  101.7360  107.6200 C   0  0  0  0  0  0  0  0  0  0  0  0
  102.8600  101.9590  107.3460 C   0  0  0  0  0  0  0  0  0  0  0  0
  101.0830  100.4770  108.0640 C   0  0  0  0  0  0  0  0  0  0  0  0
  103.7890  100.9290  107.5050 C   0  0  0  0  0  0  0  0  0  0  0  0
  102.0050   99.4420  108.2270 C   0  0  0  0  0  0  0  0  0  0  0  0
  103.3520   99.6710  107.9300 C   0  0  0  0  0  0  0  0  0  0  0  0
  104.5200   98.3480  108.1130 S   0  0  0  0  0  0  0  0  0  0  0  0
  104.3180   97.4170  107.0180 O   0  0  0  0  0  0  0  0  0  0  0  0
  105.8230   98.9380  108.3540 O   0  0  0  0  0  0  0  0  0  0  0  0
  103.9920   97.5510  109.6070 C   0  0  0  0  0  0  0  0  0  0  0  0
  2 11  1  0  0  0  0
  2  1  1  0  0  0  0
  3  2  2  0  0  0  0
  4  5  1  1  0  0  0
  4  3  1  0  0  0  0
  4 10  1  0  0  0  0
  6  5  2  0  0  0  0
  6  8  1  0  0  0  0
  7  6  1  0  0  0  0
  8  9  2  0  0  0  0
  9 10  1  0  0  0  0
 10 11  2  0  0  0  0
 11 12  1  0  0  0  0
 12 17  1  0  0  0  0
 13 14  1  0  0  0  0
 13  3  1  0  0  0  0
 14 15  1  0  0  0  0
 16 14  2  0  0  0  0
 17 19  1  0  0  0  0
 18 20  1  0  0  0  0
 18 17  2  0  0  0  0
 19 21  2  0  0  0  0
 20 22  2  0  0  0  0
 22 23  1  0  0  0  0
 22 21  1  0  0  0  0
 23 25  2  0  0  0  0
 23 26  1  0  0  0  0
 24 23  2  0  0  0  0
M  END
>  <minimizedAffinity>
-8.26749516

>  <CNNscore>
0.6040622

>  <CNNaffinity>
6.69143438

$$$$

 OpenBabel08282605193D

 26 28  0  0  1  0  0  0  0  0999 V2000
   98.5400  100.5320  102.2650 C   0  0  0  0  0  0  0  0  0  0  0  0
   98.5400  101.2500  103.5720 C   0  0  0  0  0  0  0  0  0  0  0  0
   97.7080  102.2460  103.9480 C   0  0  0  0  0  0  0  0  0  0  0  0
   98.0560  102.6220  105.3270 C   0  0  2  0  0  0  0  0  0  0  0  0
   97.4780  103.5850  106.1440 C   0  0  0  0  0  0  0  0  0  0  0  0
   98.0090  103.7680  107.4140 C   0  0  0  0  0  0  0  0  0  0  0  0
   97.4830  104.6970  108.2260 F   0  0  0  0  0  0  0  0  0  0  0  0
   99.0930  103.0100  107.8700 C   0  0  0  0  0  0  0  0  0  0  0  0
   99.6660  102.0340  107.0500 C   0  0  0  0  0  0  0  0  0  0  0  0
   99.1360  101.8400  105.7820 C   0  0  0  0  0  0  0  0  0  0  0  0
   99.4600  100.9270  104.6720 C   0  0  0  0  0  0  0  0  0  0  0  0
  100.3890   99.9560  104.6110 C   0  0  0  0  0  0  0  0  0  0  0  0
   96.6390  102.9360  103.1620 C   0  0  0  0  0  0  0  0  0  0  0  0
   95.2410  102.5320  103.6320 C   0  0  0  0  0  0  0  0  0  0  0  0
   94.9800  101.2960  103.5670 O   0  0  0  0  0  0  0  0  0  0  0  0
   94.4940  103.4910  103.9870 O   0  0  0  0  0  0  0  0  0  0  0  0
  101.3110   99.5450  105.6690 C   0  0  0  0  0  0  0  0  0  0  0  0
  102.0380   98.3560  105.5410 C   0  0  0  0  0  0  0  0  0  0  0  0
  101.4570  100.3320  106.8180 C   0  0  0  0  0  0  0  0  0  0  0  0
  102.9010   97.9470  106.5590 C   0  0  0  0  0  0  0  0  0  0  0  0
  102.3220   99.9310  107.8390 C   0  0  0  0  0  0  0  0  0  0  0  0
  103.0260   98.7310  107.7090 C   0  0  0  0  0  0  0  0  0  0  0  0
  104.1050   98.2100  109.0180 S   0  0  0  0  0  0  0  0  0  0  0  0
  103.8620   96.7990  109.2640 O   0  0  0  0  0  0  0  0  0  0  0  0
  105.4380   98.6890  108.7110 O   0  0  0  0  0  0  0  0  0  0  0  0
  103.5030   99.1150  110.4190 C   0  0  0  0  0  0  0  0  0  0  0  0
  1  2  1  0  0  0  0
  2  3  2  0  0  0  0
  2 11  1  0  0  0  0
  3  4  1  0  0  0  0
  4 10  1  0  0  0  0
  4  5  1  6  0  0  0
  5  6  2  0  0  0  0
  6  8  1  0  0  0  0
  6  7  1  0  0  0  0
  9  8  2  0  0  0  0
 10  9  1  0  0  0  0
 11 10  2  0  0  0  0
 12 11  1  0  0  0  0
 12 17  1  0  0  0  0
 13 14  1  0  0  0  0
 13  3  1  0  0  0  0
 14 16  1  0  0  0  0
 15 14  2  0  0  0  0
 17 19  1  0  0  0  0
 18 17  2  0  0  0  0
 18 20  1  0  0  0  0
 19 21  2  0  0  0  0
 20 22  2  0  0  0  0
 22 21  1  0  0  0  0
 22 23  1  0  0  0  0
 23 24  2  0  0  0  0
 23 26  1  0  0  0  0
 25 23  2  0  0  0  0
M  END
>  <minimizedAffinity>
-7.09872103

>  <CNNscore>
0.550216377

>  <CNNaffinity>
6.62155914

$$$$

 OpenBabel08282605193D

 26 28  0  0  1  0  0  0  0  0999 V2000
   94.6050  100.1320  100.3400 C   0  0  0  0  0  0  0  0  0  0  0  0
   94.3630   99.8130  101.7780 C   0  0  0  0  0  0  0  0  0  0  0  0
   93.1860   99.4660  102.3420 C   0  0  0  0  0  0  0  0  0  0  0  0
   93.4330   99.2130  103.7700 C   0  0  2  0  0  0  0  0  0  0  0  0
   92.5380   98.8200  104.7570 C   0  0  0  0  0  0  0  0  0  0  0  0
   93.0190   98.6680  106.0510 C   0  0  0  0  0  0  0  0  0  0  0  0
   92.1800   98.3010  107.0310 F   0  0  0  0  0  0  0  0  0  0  0  0
   94.3620   98.8990  106.3650 C   0  0  0  0  0  0  0  0  0  0  0  0
   95.2630   99.2830  105.3670 C   0  0  0  0  0  0  0  0  0  0  0  0
   94.7920   99.4300  104.0700 C   0  0  0  0  0  0  0  0  0  0  0  0
   95.4260   99.8030  102.7930 C   0  0  0  0  0  0  0  0  0  0  0  0
   96.7160  100.0770  102.5300 C   0  0  0  0  0  0  0  0  0  0  0  0
   91.8270   99.3790  101.7240 C   0  0  0  0  0  0  0  0  0  0  0  0
   91.3620  100.7310  101.1830 C   0  0  0  0  0  0  0  0  0  0  0  0
   91.1170  100.7660   99.9430 O   0  0  0  0  0  0  0  0  0  0  0  0
   91.3220  101.6680  102.0350 O   0  0  0  0  0  0  0  0  0  0  0  0
   97.8360  100.0480  103.4690 C   0  0  0  0  0  0  0  0  0  0  0  0
   98.1520  101.1870  104.2190 C   0  0  0  0  0  0  0  0  0  0  0  0
   98.6040   98.8850  103.6100 C   0  0  0  0  0  0  0  0  0  0  0  0
   99.2350  101.1710  105.1000 C   0  0  0  0  0  0  0  0  0  0  0  0
   99.6870   98.8600  104.4920 C   0  0  0  0  0  0  0  0  0  0  0  0
  100.0050  100.0110  105.2190 C   0  0  0  0  0  0  0  0  0  0  0  0
  101.3970   99.9870  106.3200 S   0  0  0  0  0  0  0  0  0  0  0  0
  101.6170   98.6120  106.7320 O   0  0  0  0  0  0  0  0  0  0  0  0
  102.4610  100.7560  105.7060 O   0  0  0  0  0  0  0  0  0  0  0  0
  100.8080  100.8880  107.7300 C   0  0  0  0  0  0  0  0  0  0  0  0
  1  2  1  0  0  0  0
  2  3  2  0  0  0  0
  2 11  1  0  0  0  0
  3  4  1  0  0  0  0
  4 10  1  0  0  0  0
  4  5  1  1  0  0  0
  5  6  2  0  0  0  0
  6  8  1  0  0  0  0
  6  7  1  0  0  0  0
  9  8  2  0  0  0  0
 10  9  1  0  0  0  0
 11 10  2  0  0  0  0
 12 11  1  0  0  0  0
 12 17  1  0  0  0  0
 13  3  1  0  0  0  0
 14 13  1  0  0  0  0
 14 16  1  0  0  0  0
 15 14  2  0  0  0  0
 17 19  2  0  0  0  0
 17 18  1  0  0  0  0
 18 20  2  0  0  0  0
 19 21  1  0  0  0  0
 20 22  1  0  0  0  0
 21 22  2  0  0  0  0
 22 23  1  0  0  0  0
 23 24  2  0  0  0  0
 23 26  1  0  0  0  0
 25 23  2  0  0  0  0
M  END
>  <minimizedAffinity>
-7.13642502

>  <CNNscore>
0.549869239

>  <CNNaffinity>
5.89416838

$$$$

 OpenBabel08282605193D

 26 28  0  0  1  0  0  0  0  0999 V2000
   92.2020  101.5870  100.3490 C   0  0  0  0  0  0  0  0  0  0  0  0
   92.2510  100.7640  101.5930 C   0  0  0  0  0  0  0  0  0  0  0  0
   91.2230  100.1010  102.1640 C   0  0  0  0  0  0  0  0  0  0  0  0
   91.7460   99.4040  103.3500 C   0  0  2  0  0  0  0  0  0  0  0  0
   91.0750   98.5870  104.2500 C   0  0  0  0  0  0  0  0  0  0  0  0
   91.7960   98.0590  105.3140 C   0  0  0  0  0  0  0  0  0  0  0  0
   91.1780   97.2750  106.2100 F   0  0  0  0  0  0  0  0  0  0  0  0
   93.1570   98.3330  105.4840 C   0  0  0  0  0  0  0  0  0  0  0  0
   93.8320   99.1460  104.5680 C   0  0  0  0  0  0  0  0  0  0  0  0
   93.1210   99.6710  103.4990 C   0  0  0  0  0  0  0  0  0  0  0  0
   93.4820  100.5370  102.3630 C   0  0  0  0  0  0  0  0  0  0  0  0
   94.6810  101.0440  102.0250 C   0  0  0  0  0  0  0  0  0  0  0  0
   89.7810  100.0630  101.7690 C   0  0  0  0  0  0  0  0  0  0  0  0
   89.1890  101.4690  101.6500 C   0  0  0  0  0  0  0  0  0  0  0  0
   88.9030  101.8420  100.4760 O   0  0  0  0  0  0  0  0  0  0  0  0
   89.0990  102.1090  102.7390 O   0  0  0  0  0  0  0  0  0  0  0  0
   95.9560  100.8320  102.7100 C   0  0  0  0  0  0  0  0  0  0  0  0
   96.4620   99.5360  102.8610 C   0  0  0  0  0  0  0  0  0  0  0  0
   96.6660  101.9230  103.2270 C   0  0  0  0  0  0  0  0  0  0  0  0
   97.6680   99.3260  103.5340 C   0  0  0  0  0  0  0  0  0  0  0  0
   97.8730  101.7210  103.8980 C   0  0  0  0  0  0  0  0  0  0  0  0
   98.3580  100.4200  104.0620 C   0  0  0  0  0  0  0  0  0  0  0  0
   99.8800  100.1630  104.9380 S   0  0  0  0  0  0  0  0  0  0  0  0
   99.7150  100.6810  106.2840 O   0  0  0  0  0  0  0  0  0  0  0  0
  100.2920   98.7900  104.7170 O   0  0  0  0  0  0  0  0  0  0  0  0
  101.0180  101.2240  104.0850 C   0  0  0  0  0  0  0  0  0  0  0  0
  1  2  1  0  0  0  0
  2  3  2  0  0  0  0
  2 11  1  0  0  0  0
  3  4  1  0  0  0  0
  4 10  1  0  0  0  0
  4  5  1  1  0  0  0
  5  6  2  0  0  0  0
  6  8  1  0  0  0  0
  6  7  1  0  0  0  0
  9  8  2  0  0  0  0
 10  9  1  0  0  0  0
 11 10  2  0  0  0  0
 12 11  1  0  0  0  0
 12 17  1  0  0  0  0
 13  3  1  0  0  0  0
 14 13  1  0  0  0  0
 14 16  1  0  0  0  0
 15 14  2  0  0  0  0
 17 18  2  0  0  0  0
 17 19  1  0  0  0  0
 18 20  1  0  0  0  0
 19 21  2  0  0  0  0
 20 22  2  0  0  0  0
 21 22  1  0  0  0  0
 22 23  1  0  0  0  0
 23 24  2  0  0  0  0
 25 23  2  0  0  0  0
 26 23  1  0  0  0  0
M  END
>  <minimizedAffinity>
-6.00271082

>  <CNNscore>
0.545552313

>  <CNNaffinity>
5.71123648

$$$$

 OpenBabel08282605193D

 26 28  0  0  1  0  0  0  0  0999 V2000
  102.6070   98.1280  105.9140 C   0  0  0  0  0  0  0  0  0  0  0  0
  101.8110   99.3300  106.3010 C   0  0  0  0  0  0  0  0  0  0  0  0
  102.1230  100.2340  107.2540 C   0  0  0  0  0  0  0  0  0  0  0  0
  101.0670  101.2590  107.2590 C   0  0  0  0  0  0  0  0  0  0  0  0
  100.9530  102.3930  108.0520 C   0  0  0  0  0  0  0  0  0  0  0  0
   99.8360  103.2010  107.8790 C   0  0  0  0  0  0  0  0  0  0  0  0
   99.6870  104.2980  108.6350 F   0  0  0  0  0  0  0  0  0  0  0  0
   98.8490  102.8930  106.9360 C   0  0  0  0  0  0  0  0  0  0  0  0
   98.9730  101.7570  106.1310 C   0  0  0  0  0  0  0  0  0  0  0  0
  100.0900  100.9490  106.2930 C   0  0  2  0  0  0  0  0  0  0  0  0
  100.5540   99.7120  105.6420 C   0  0  0  0  0  0  0  0  0  0  0  0
   99.9990   99.0220  104.6290 C   0  0  0  0  0  0  0  0  0  0  0  0
  103.2740  100.2480  108.2080 C   0  0  0  0  0  0  0  0  0  0  0  0
  103.4140   98.9170  108.9470 C   0  0  0  0  0  0  0  0  0  0  0  0
  102.4090   98.5650  109.6300 O   0  0  0  0  0  0  0  0  0  0  0  0
  104.5390   98.3480  108.8250 O   0  0  0  0  0  0  0  0  0  0  0  0
   98.7800   99.3550  103.8940 C   0  0  0  0  0  0  0  0  0  0  0  0
   97.5420   98.8760  104.3370 C   0  0  0  0  0  0  0  0  0  0  0  0
   98.8500  100.1440  102.7390 C   0  0  0  0  0  0  0  0  0  0  0  0
   96.3780   99.1730  103.6260 C   0  0  0  0  0  0  0  0  0  0  0  0
   97.6900  100.4480  102.0240 C   0  0  0  0  0  0  0  0  0  0  0  0
   96.4620   99.9450  102.4640 C   0  0  0  0  0  0  0  0  0  0  0  0
   94.9910  100.3110  101.5410 S   0  0  0  0  0  0  0  0  0  0  0  0
   95.0920  101.6770  101.0610 O   0  0  0  0  0  0  0  0  0  0  0  0
   94.7630   99.2160  100.6180 O   0  0  0  0  0  0  0  0  0  0  0  0
   93.7190  100.2630  102.7770 C   0  0  0  0  0  0  0  0  0  0  0  0
  1  2  1  0  0  0  0
  2  3  1  0  0  0  0
  3  4  2  0  0  0  0
  3 13  1  0  0  0  0
  4  5  1  0  0  0  0
  6  5  2  0  0  0  0
  6  7  1  0  0  0  0
  8  6  1  0  0  0  0
  9  8  2  0  0  0  0
 10  9  1  1  0  0  0
 10  4  1  0  0  0  0
 11 10  1  0  0  0  0
 11  2  2  0  0  0  0
 12 11  1  0  0  0  0
 13 14  1  0  0  0  0
 14 15  1  0  0  0  0
 16 14  2  0  0  0  0
 17 18  1  0  0  0  0
 17 12  1  0  0  0  0
 19 17  2  0  0  0  0
 20 18  2  0  0  0  0
 21 22  2  0  0  0  0
 21 19  1  0  0  0  0
 22 20  1  0  0  0  0
 23 22  1  0  0  0  0
 23 26  1  0  0  0  0
 24 23  2  0  0  0  0
 25 23  2  0  0  0  0
M  END
>  <minimizedAffinity>
-9.01799583

>  <CNNscore>
0.542780161

>  <CNNaffinity>
6.29385567

$$$$
