AVHFYGNBTIJHDJ-OAHLLOKOSA-N
     RDKit          3D

 31 35  0  0  0  0  0  0  0  0999 V2000
   -6.5890   17.9370   18.3570 C   0  0  0  0  0  0  0  0  0  0  0  0
   -7.6580   17.5960   19.3860 C   0  0  0  0  0  0  0  0  0  0  0  0
   -7.3490   16.3160   20.1810 C   0  0  1  0  0  0  0  0  0  0  0  0
   -7.0500   16.5820   21.6580 C   0  0  0  0  0  0  0  0  0  0  0  0
   -8.4380   15.3460   20.0440 N   0  0  0  0  0  0  0  0  0  0  0  0
   -9.7850   15.5880   20.1110 C   0  0  0  0  0  0  0  0  0  0  0  0
  -10.4210   14.3750   19.9220 C   0  0  0  0  0  0  0  0  0  0  0  0
  -11.8350   14.0630   19.8740 C   0  0  0  0  0  0  0  0  0  0  0  0
  -12.6620   15.0510   20.0730 N   0  0  0  0  0  0  0  0  0  0  0  0
  -14.0250   14.7970   20.0700 C   0  0  0  0  0  0  0  0  0  0  0  0
  -14.8450   15.9490   20.3050 C   0  0  0  0  0  0  0  0  0  0  0  0
  -16.2490   16.0890   20.2340 C   0  0  0  0  0  0  0  0  0  0  0  0
  -16.6580   17.3290   20.5180 N   0  0  0  0  0  0  0  0  0  0  0  0
  -15.5160   17.9900   20.7750 N   0  0  0  0  0  0  0  0  0  0  0  0
  -15.5500   19.4060   21.1300 C   0  0  0  0  0  0  0  0  0  0  0  0
  -16.3970   20.2400   20.1490 C   0  0  0  0  0  0  0  0  0  0  0  0
  -15.7350   20.5380   18.8100 C   0  0  0  0  0  0  0  0  0  0  0  0
  -14.1680   21.3480   19.0200 S   0  0  0  0  0  0  0  0  0  0  0  0
  -13.4730   21.3410   17.7480 O   0  0  0  0  0  0  0  0  0  0  0  0
  -14.4060   22.5930   19.7280 O   0  0  0  0  0  0  0  0  0  0  0  0
  -13.3200   20.2500   20.1310 C   0  0  0  0  0  0  0  0  0  0  0  0
  -14.1420   19.9770   21.3850 C   0  0  0  0  0  0  0  0  0  0  0  0
  -14.4050   17.2080   20.6580 C   0  0  0  0  0  0  0  0  0  0  0  0
  -14.5200   13.5620   19.8700 C   0  0  0  0  0  0  0  0  0  0  0  0
  -13.6540   12.5110   19.6390 N   0  0  0  0  0  0  0  0  0  0  0  0
  -13.9630   11.2130   19.4010 N   0  0  0  0  0  0  0  0  0  0  0  0
  -12.7890   10.6270   19.1720 C   0  0  0  0  0  0  0  0  0  0  0  0
  -11.7110   11.5190   19.2800 C   0  0  0  0  0  0  0  0  0  0  0  0
  -12.2900   12.7240   19.6140 C   0  0  0  0  0  0  0  0  0  0  0  0
   -9.3470   13.4730   19.7200 C   0  0  0  0  0  0  0  0  0  0  0  0
   -8.1480   14.0540   19.8100 N   0  0  0  0  0  0  0  0  0  0  0  0
  1  2  1  0
  2  3  1  0
  3  4  1  1
  3  5  1  0
  5  6  1  0
  6  7  2  0
  7  8  1  0
  8  9  2  0
  9 10  1  0
 10 11  1  0
 11 12  1  0
 12 13  2  0
 13 14  1  0
 14 15  1  0
 15 16  1  0
 16 17  1  0
 17 18  1  0
 18 19  2  0
 18 20  2  0
 18 21  1  0
 21 22  1  0
 14 23  1  0
 10 24  2  0
 24 25  1  0
 25 26  1  0
 26 27  2  0
 27 28  1  0
 28 29  2  0
  7 30  1  0
 30 31  2  0
 31  5  1  0
 29  8  1  0
 23 11  2  0
 29 25  1  0
 22 15  1  0
M  END
$$$$
