RADMAAOUVWABJD-OWOJBTEDSA-N
     RDKit          3D

 26 29  0  0  0  0  0  0  0  0999 V2000
    8.2410  -18.1860   22.0120 C   0  0  0  0  0  0  0  0  0  0  0  0
    9.0730  -19.2320   21.8750 C   0  0  0  0  0  0  0  0  0  0  0  0
    9.5410  -20.0710   23.0250 C   0  0  0  0  0  0  0  0  0  0  0  0
    9.7270  -21.4280   22.6200 O   0  0  0  0  0  0  0  0  0  0  0  0
    9.7230  -22.3720   23.6950 C   0  0  0  0  0  0  0  0  0  0  0  0
    8.8770  -23.5370   23.3400 C   0  0  0  0  0  0  0  0  0  0  0  0
    8.9910  -24.8980   23.5170 C   0  0  0  0  0  0  0  0  0  0  0  0
    7.8220  -25.4730   22.9560 C   0  0  0  0  0  0  0  0  0  0  0  0
    7.0560  -24.4290   22.4680 C   0  0  0  0  0  0  0  0  0  0  0  0
    7.7090  -23.2510   22.7020 O   0  0  0  0  0  0  0  0  0  0  0  0
    5.7630  -24.3230   21.7980 C   0  0  0  0  0  0  0  0  0  0  0  0
    4.8480  -25.3500   21.8070 C   0  0  0  0  0  0  0  0  0  0  0  0
    3.6740  -25.0930   21.1470 C   0  0  0  0  0  0  0  0  0  0  0  0
    3.4070  -23.9310   20.5240 N   0  0  0  0  0  0  0  0  0  0  0  0
    4.3590  -22.9820   20.5550 C   0  0  0  0  0  0  0  0  0  0  0  0
    5.5270  -23.1490   21.1800 N   0  0  0  0  0  0  0  0  0  0  0  0
    4.0390  -21.7970   19.9010 N   0  0  0  0  0  0  0  0  0  0  0  0
    3.8830  -20.4720   20.3250 C   0  0  0  0  0  0  0  0  0  0  0  0
    2.7750  -20.1480   21.1230 C   0  0  0  0  0  0  0  0  0  0  0  0
    2.5640  -18.8440   21.5820 C   0  0  0  0  0  0  0  0  0  0  0  0
    3.4670  -17.8350   21.2550 C   0  0  0  0  0  0  0  0  0  0  0  0
    4.5920  -18.1280   20.4800 C   0  0  0  0  0  0  0  0  0  0  0  0
    4.7820  -19.4440   20.0190 C   0  0  0  0  0  0  0  0  0  0  0  0
    5.5670  -17.0490   20.0890 C   0  0  0  0  0  0  0  0  0  0  0  0
    6.4620  -16.8500   21.1790 O   0  0  0  0  0  0  0  0  0  0  0  0
    7.7870  -17.2930   20.9030 C   0  0  0  0  0  0  0  0  0  0  0  0
  1  2  2  0
  2  3  1  0
  3  4  1  0
  4  5  1  0
  5  6  1  0
  6  7  2  0
  7  8  1  0
  8  9  2  0
  9 10  1  0
  9 11  1  0
 11 12  1  0
 12 13  2  0
 13 14  1  0
 14 15  2  0
 15 16  1  0
 15 17  1  0
 17 18  1  0
 18 19  1  0
 19 20  2  0
 20 21  1  0
 21 22  2  0
 22 23  1  0
 22 24  1  0
 24 25  1  0
 25 26  1  0
 26  1  1  0
 10  6  1  0
 16 11  2  0
 23 18  2  0
M  END
$$$$
