
 OpenBabel08272610403D

 30 34  0  0  1  0  0  0  0  0999 V2000
  100.1800  102.2960  106.9420 N   0  0  0  0  0  0  0  0  0  0  0  0
   99.5060  102.2070  105.7490 N   0  0  0  0  0  0  0  0  0  0  0  0
   98.2720  102.5290  105.9850 C   0  0  0  0  0  0  0  0  0  0  0  0
   97.2010  102.6130  104.9780 C   0  0  0  0  0  0  0  0  0  0  0  0
   97.4550  102.2660  103.6500 C   0  0  0  0  0  0  0  0  0  0  0  0
   96.4250  102.3400  102.7080 C   0  0  0  0  0  0  0  0  0  0  0  0
   95.1360  102.7580  103.0780 C   0  0  0  0  0  0  0  0  0  0  0  0
   94.9040  103.1060  104.4200 C   0  0  0  0  0  0  0  0  0  0  0  0
   95.9270  103.0520  105.3760 C   0  0  0  0  0  0  0  0  0  0  0  0
   95.6260  103.4210  106.8070 C   0  0  0  0  0  0  0  0  0  0  0  0
   96.8860  103.8510  107.5600 C   0  0  0  0  0  0  0  0  0  0  0  0
   97.9500  102.7750  107.4330 C   0  0  2  0  0  0  0  0  0  0  0  0
   99.3820  103.0050  107.9640 C   0  0  2  0  0  0  0  0  0  0  0  0
  101.1760  101.3490  107.2070 C   0  0  0  0  0  0  0  0  0  0  0  0
  105.0820   97.6930  108.1890 N   0  0  0  0  0  0  0  0  0  0  0  0
  104.2300   98.4400  107.9360 C   0  0  0  0  0  0  0  0  0  0  0  0
  103.1980   99.3970  107.6690 C   0  0  0  0  0  0  0  0  0  0  0  0
  103.0990  100.5280  108.4820 C   0  0  0  0  0  0  0  0  0  0  0  0
  102.2920   99.2400  106.6190 C   0  0  0  0  0  0  0  0  0  0  0  0
  102.1050  101.4880  108.2490 C   0  0  0  0  0  0  0  0  0  0  0  0
  101.3030  100.2060  106.3960 C   0  0  0  0  0  0  0  0  0  0  0  0
  102.3510   97.8760  105.5590 Cl  0  0  0  0  0  0  0  0  0  0  0  0
   99.8210  104.4930  108.0620 C   0  0  0  0  0  0  0  0  0  0  0  0
   98.9630  105.3740  108.9940 C   0  0  0  0  0  0  0  0  0  0  0  0
   99.7430  105.2080  106.6910 C   0  0  0  0  0  0  0  0  0  0  0  0
   98.0580  106.1760  108.0750 C   0  0  0  0  0  0  0  0  0  0  0  0
   98.9780  106.5050  106.9170 C   0  0  0  0  0  0  0  0  0  0  0  0
   94.0150  102.8300  102.0560 C   0  0  0  0  0  0  0  0  0  0  0  0
   92.9970  103.5270  102.3600 O   0  0  0  0  0  0  0  0  0  0  0  0
   94.1820  102.1860  100.9730 O   0  0  0  0  0  0  0  0  0  0  0  0
  1 14  1  0  0  0  0
  1 13  1  0  0  0  0
  2  3  2  0  0  0  0
  2  1  1  0  0  0  0
  3 12  1  0  0  0  0
  4  9  1  0  0  0  0
  4  3  1  0  0  0  0
  5  4  2  0  0  0  0
  6  7  2  0  0  0  0
  6  5  1  0  0  0  0
  7  8  1  0  0  0  0
  8  9  2  0  0  0  0
  9 10  1  0  0  0  0
 10 11  1  0  0  0  0
 12 11  1  6  0  0  0
 12 13  1  0  0  0  0
 13 23  1  6  0  0  0
 14 20  1  0  0  0  0
 16 15  3  0  0  0  0
 17 16  1  0  0  0  0
 17 18  1  0  0  0  0
 19 17  2  0  0  0  0
 20 18  2  0  0  0  0
 21 19  1  0  0  0  0
 21 14  2  0  0  0  0
 22 19  1  0  0  0  0
 23 24  1  0  0  0  0
 25 27  1  0  0  0  0
 25 23  1  0  0  0  0
 26 24  1  0  0  0  0
 27 26  1  0  0  0  0
 28 29  1  0  0  0  0
 28  7  1  0  0  0  0
 30 28  2  0  0  0  0
M  END
>  <minimizedAffinity>
-10.2194605

>  <CNNscore>
0.643384278

>  <CNNaffinity>
7.20174599

$$$$

 OpenBabel08272610403D

 30 34  0  0  1  0  0  0  0  0999 V2000
  100.0170  102.1490  104.9210 N   0  0  0  0  0  0  0  0  0  0  0  0
   98.6860  102.1980  104.5850 N   0  0  0  0  0  0  0  0  0  0  0  0
   98.3740  101.0370  104.0990 C   0  0  0  0  0  0  0  0  0  0  0  0
   97.0330  100.6280  103.6490 C   0  0  0  0  0  0  0  0  0  0  0  0
   95.9780  101.5410  103.6610 C   0  0  0  0  0  0  0  0  0  0  0  0
   94.7140  101.1410  103.2210 C   0  0  0  0  0  0  0  0  0  0  0  0
   94.4880   99.8320  102.7640 C   0  0  0  0  0  0  0  0  0  0  0  0
   95.5640   98.9270  102.7650 C   0  0  0  0  0  0  0  0  0  0  0  0
   96.8360   99.3060  103.2160 C   0  0  0  0  0  0  0  0  0  0  0  0
   97.9620   98.3040  103.1830 C   0  0  0  0  0  0  0  0  0  0  0  0
   99.0650   98.6560  104.1850 C   0  0  0  0  0  0  0  0  0  0  0  0
   99.5290  100.0840  103.9520 C   0  0  2  0  0  0  0  0  0  0  0  0
  100.5260  100.7620  104.9160 C   0  0  2  0  0  0  0  0  0  0  0  0
  100.7910  103.2960  104.7120 C   0  0  0  0  0  0  0  0  0  0  0  0
  103.8180  107.7530  103.9600 N   0  0  0  0  0  0  0  0  0  0  0  0
  103.1320  106.8350  104.1470 C   0  0  0  0  0  0  0  0  0  0  0  0
  102.3270  105.6670  104.3510 C   0  0  0  0  0  0  0  0  0  0  0  0
  102.7860  104.4390  103.8680 C   0  0  0  0  0  0  0  0  0  0  0  0
  101.1040  105.7150  105.0200 C   0  0  0  0  0  0  0  0  0  0  0  0
  102.0270  103.2740  104.0510 C   0  0  0  0  0  0  0  0  0  0  0  0
  100.3550  104.5450  105.1980 C   0  0  0  0  0  0  0  0  0  0  0  0
  100.4690  107.1910  105.6580 Cl  0  0  0  0  0  0  0  0  0  0  0  0
  100.5500  100.1860  106.3610 C   0  0  0  0  0  0  0  0  0  0  0  0
  100.5290  101.2370  107.4900 C   0  0  0  0  0  0  0  0  0  0  0  0
  101.8360   99.3680  106.6320 C   0  0  0  0  0  0  0  0  0  0  0  0
  101.9600  101.3250  107.9900 C   0  0  0  0  0  0  0  0  0  0  0  0
  102.4110   99.8800  107.9460 C   0  0  0  0  0  0  0  0  0  0  0  0
   93.1160   99.4000  102.2790 C   0  0  0  0  0  0  0  0  0  0  0  0
   92.1120  100.0220  102.7510 O   0  0  0  0  0  0  0  0  0  0  0  0
   93.0760   98.4480  101.4380 O   0  0  0  0  0  0  0  0  0  0  0  0
  2  1  1  0  0  0  0
  3  2  2  0  0  0  0
  4  5  1  0  0  0  0
  4  3  1  0  0  0  0
  6  5  2  0  0  0  0
  7  8  2  0  0  0  0
  7  6  1  0  0  0  0
  8  9  1  0  0  0  0
  9  4  2  0  0  0  0
 10  9  1  0  0  0  0
 10 11  1  0  0  0  0
 12  3  1  0  0  0  0
 12 11  1  1  0  0  0
 12 13  1  0  0  0  0
 13  1  1  0  0  0  0
 13 23  1  1  0  0  0
 14  1  1  0  0  0  0
 14 21  1  0  0  0  0
 15 16  3  0  0  0  0
 16 17  1  0  0  0  0
 17 19  1  0  0  0  0
 18 20  1  0  0  0  0
 18 17  2  0  0  0  0
 19 21  2  0  0  0  0
 19 22  1  0  0  0  0
 20 14  2  0  0  0  0
 23 25  1  0  0  0  0
 23 24  1  0  0  0  0
 24 26  1  0  0  0  0
 25 27  1  0  0  0  0
 27 26  1  0  0  0  0
 28 29  1  0  0  0  0
 28  7  1  0  0  0  0
 30 28  2  0  0  0  0
M  END
>  <minimizedAffinity>
-8.87240028

>  <CNNscore>
0.575480938

>  <CNNaffinity>
7.05327749

$$$$

 OpenBabel08272610403D

 30 34  0  0  1  0  0  0  0  0999 V2000
   99.3040  102.8120  105.5620 N   0  0  0  0  0  0  0  0  0  0  0  0
   98.0290  102.4240  105.2270 N   0  0  0  0  0  0  0  0  0  0  0  0
   98.1400  101.4200  104.4140 C   0  0  0  0  0  0  0  0  0  0  0  0
   97.0200  100.6590  103.8360 C   0  0  0  0  0  0  0  0  0  0  0  0
   95.7020  101.0400  104.0950 C   0  0  0  0  0  0  0  0  0  0  0  0
   94.6500  100.3140  103.5300 C   0  0  0  0  0  0  0  0  0  0  0  0
   94.8980   99.2050  102.7030 C   0  0  0  0  0  0  0  0  0  0  0  0
   96.2330   98.8370  102.4600 C   0  0  0  0  0  0  0  0  0  0  0  0
   97.3010   99.5440  103.0290 C   0  0  0  0  0  0  0  0  0  0  0  0
   98.7160   99.1200  102.7250 C   0  0  0  0  0  0  0  0  0  0  0  0
   99.6930   99.5830  103.8090 C   0  0  0  0  0  0  0  0  0  0  0  0
   99.5500  101.0810  104.0170 C   0  0  2  0  0  0  0  0  0  0  0  0
  100.3020  101.7990  105.1590 C   0  0  2  0  0  0  0  0  0  0  0  0
   99.5560  104.1800  105.7160 C   0  0  0  0  0  0  0  0  0  0  0  0
  100.5800  109.4840  106.3600 N   0  0  0  0  0  0  0  0  0  0  0  0
  100.3310  108.3530  106.2710 C   0  0  0  0  0  0  0  0  0  0  0  0
  100.0560  106.9560  106.1120 C   0  0  0  0  0  0  0  0  0  0  0  0
  100.5550  106.2940  104.9880 C   0  0  0  0  0  0  0  0  0  0  0  0
   99.3110  106.2340  107.0450 C   0  0  0  0  0  0  0  0  0  0  0  0
  100.3090  104.9270  104.7990 C   0  0  0  0  0  0  0  0  0  0  0  0
   99.0720  104.8680  106.8460 C   0  0  0  0  0  0  0  0  0  0  0  0
   98.6670  106.9730  108.4690 Cl  0  0  0  0  0  0  0  0  0  0  0  0
  100.6860  100.9020  106.3690 C   0  0  0  0  0  0  0  0  0  0  0  0
  100.6890  101.6090  107.7400 C   0  0  0  0  0  0  0  0  0  0  0  0
  102.1210  100.3370  106.2340 C   0  0  0  0  0  0  0  0  0  0  0  0
  102.1500  101.8750  108.0560 C   0  0  0  0  0  0  0  0  0  0  0  0
  102.8270  100.6170  107.5530 C   0  0  0  0  0  0  0  0  0  0  0  0
   93.7550   98.4220  102.0840 C   0  0  0  0  0  0  0  0  0  0  0  0
   92.6320   98.4690  102.6770 O   0  0  0  0  0  0  0  0  0  0  0  0
   94.0100   97.7760  101.0190 O   0  0  0  0  0  0  0  0  0  0  0  0
  1 14  1  0  0  0  0
  2  1  1  0  0  0  0
  3  2  2  0  0  0  0
  4  5  1  0  0  0  0
  4  3  1  0  0  0  0
  6  5  2  0  0  0  0
  7  6  1  0  0  0  0
  8  7  2  0  0  0  0
  8  9  1  0  0  0  0
  9  4  2  0  0  0  0
 10  9  1  0  0  0  0
 10 11  1  0  0  0  0
 12 11  1  1  0  0  0
 12  3  1  0  0  0  0
 12 13  1  0  0  0  0
 13  1  1  0  0  0  0
 13 23  1  1  0  0  0
 14 21  1  0  0  0  0
 16 15  3  0  0  0  0
 17 16  1  0  0  0  0
 17 19  1  0  0  0  0
 18 17  2  0  0  0  0
 19 22  1  0  0  0  0
 20 18  1  0  0  0  0
 20 14  2  0  0  0  0
 21 19  2  0  0  0  0
 23 24  1  0  0  0  0
 24 26  1  0  0  0  0
 25 23  1  0  0  0  0
 25 27  1  0  0  0  0
 27 26  1  0  0  0  0
 28 29  1  0  0  0  0
 28  7  1  0  0  0  0
 30 28  2  0  0  0  0
M  END
>  <minimizedAffinity>
-9.82379436

>  <CNNscore>
0.50404197

>  <CNNaffinity>
6.87915277

$$$$

 OpenBabel08272610403D

 30 34  0  0  1  0  0  0  0  0999 V2000
   96.8360  100.8490  104.7540 N   0  0  0  0  0  0  0  0  0  0  0  0
   95.7850  100.3250  105.4660 N   0  0  0  0  0  0  0  0  0  0  0  0
   94.9470   99.8400  104.6030 C   0  0  0  0  0  0  0  0  0  0  0  0
   93.6930   99.1400  104.9270 C   0  0  0  0  0  0  0  0  0  0  0  0
   93.2830   99.0090  106.2550 C   0  0  0  0  0  0  0  0  0  0  0  0
   92.0850   98.3510  106.5460 C   0  0  0  0  0  0  0  0  0  0  0  0
   91.2850   97.8190  105.5210 C   0  0  0  0  0  0  0  0  0  0  0  0
   91.7200   97.9580  104.1910 C   0  0  0  0  0  0  0  0  0  0  0  0
   92.9250   98.6030  103.8810 C   0  0  0  0  0  0  0  0  0  0  0  0
   93.3410   98.7410  102.4380 C   0  0  0  0  0  0  0  0  0  0  0  0
   94.8540   98.9280  102.2990 C   0  0  0  0  0  0  0  0  0  0  0  0
   95.3060  100.0910  103.1640 C   0  0  2  0  0  0  0  0  0  0  0  0
   96.8060  100.4140  103.3430 C   0  0  2  0  0  0  0  0  0  0  0  0
   97.4260  102.0280  105.2250 C   0  0  0  0  0  0  0  0  0  0  0  0
   99.7710  106.5970  107.0190 N   0  0  0  0  0  0  0  0  0  0  0  0
   99.3030  105.5920  106.6730 C   0  0  0  0  0  0  0  0  0  0  0  0
   98.6930  104.3820  106.2080 C   0  0  0  0  0  0  0  0  0  0  0  0
   97.7040  104.4610  105.2230 C   0  0  0  0  0  0  0  0  0  0  0  0
   99.0560  103.1290  106.7000 C   0  0  0  0  0  0  0  0  0  0  0  0
   97.0870  103.3000  104.7400 C   0  0  0  0  0  0  0  0  0  0  0  0
   98.4320  101.9750  106.2090 C   0  0  0  0  0  0  0  0  0  0  0  0
  100.2760  102.9410  107.9100 Cl  0  0  0  0  0  0  0  0  0  0  0  0
   97.7730   99.2170  103.1210 C   0  0  0  0  0  0  0  0  0  0  0  0
   98.3160   98.5610  104.4080 C   0  0  0  0  0  0  0  0  0  0  0  0
   99.0460   99.6410  102.3490 C   0  0  0  0  0  0  0  0  0  0  0  0
   99.7320   99.0870  104.5650 C   0  0  0  0  0  0  0  0  0  0  0  0
  100.2340   99.1050  103.1360 C   0  0  0  0  0  0  0  0  0  0  0  0
   89.9800   97.1110  105.8380 C   0  0  0  0  0  0  0  0  0  0  0  0
   89.1650   96.9410  104.8770 O   0  0  0  0  0  0  0  0  0  0  0  0
   89.8020   96.7430  107.0410 O   0  0  0  0  0  0  0  0  0  0  0  0
  1 14  1  0  0  0  0
  1  2  1  0  0  0  0
  3  4  1  0  0  0  0
  3  2  2  0  0  0  0
  4  5  1  0  0  0  0
  5  6  2  0  0  0  0
  7 28  1  0  0  0  0
  7  6  1  0  0  0  0
  8  7  2  0  0  0  0
  9  8  1  0  0  0  0
  9  4  2  0  0  0  0
 10  9  1  0  0  0  0
 11 10  1  0  0  0  0
 12 11  1  6  0  0  0
 12 13  1  0  0  0  0
 12  3  1  0  0  0  0
 13 23  1  1  0  0  0
 13  1  1  0  0  0  0
 14 21  1  0  0  0  0
 16 15  3  0  0  0  0
 17 16  1  0  0  0  0
 17 19  1  0  0  0  0
 18 17  2  0  0  0  0
 19 22  1  0  0  0  0
 20 18  1  0  0  0  0
 20 14  2  0  0  0  0
 21 19  2  0  0  0  0
 23 24  1  0  0  0  0
 24 26  1  0  0  0  0
 25 23  1  0  0  0  0
 25 27  1  0  0  0  0
 27 26  1  0  0  0  0
 28 30  1  0  0  0  0
 29 28  2  0  0  0  0
M  END
>  <minimizedAffinity>
-8.36254501

>  <CNNscore>
0.501426041

>  <CNNaffinity>
6.57247925

$$$$

 OpenBabel08272610403D

 30 34  0  0  1  0  0  0  0  0999 V2000
   97.1240  101.0160  105.3390 N   0  0  0  0  0  0  0  0  0  0  0  0
   96.0260  100.3260  105.7890 N   0  0  0  0  0  0  0  0  0  0  0  0
   95.3010  100.0470  104.7500 C   0  0  0  0  0  0  0  0  0  0  0  0
   94.0480   99.2740  104.7610 C   0  0  0  0  0  0  0  0  0  0  0  0
   93.5060   98.8300  105.9690 C   0  0  0  0  0  0  0  0  0  0  0  0
   92.3110   98.1070  105.9640 C   0  0  0  0  0  0  0  0  0  0  0  0
   91.6430   97.8200  104.7610 C   0  0  0  0  0  0  0  0  0  0  0  0
   92.2090   98.2740  103.5570 C   0  0  0  0  0  0  0  0  0  0  0  0
   93.4150   98.9880  103.5400 C   0  0  0  0  0  0  0  0  0  0  0  0
   93.9750   99.4660  102.2250 C   0  0  0  0  0  0  0  0  0  0  0  0
   95.4850   99.7010  102.3010 C   0  0  0  0  0  0  0  0  0  0  0  0
   95.7990  100.6330  103.4580 C   0  0  2  0  0  0  0  0  0  0  0  0
   97.2580  100.9240  103.8710 C   0  0  2  0  0  0  0  0  0  0  0  0
   97.6160  102.0590  106.1330 C   0  0  0  0  0  0  0  0  0  0  0  0
   99.4900  106.0920  109.2660 N   0  0  0  0  0  0  0  0  0  0  0  0
   99.0430  105.2620  108.5870 C   0  0  0  0  0  0  0  0  0  0  0  0
   98.5400  104.2060  107.7600 C   0  0  0  0  0  0  0  0  0  0  0  0
   99.3190  103.0610  107.5800 C   0  0  0  0  0  0  0  0  0  0  0  0
   97.2960  104.2810  107.1340 C   0  0  0  0  0  0  0  0  0  0  0  0
   98.8590  102.0050  106.7810 C   0  0  0  0  0  0  0  0  0  0  0  0
   96.8460  103.2190  106.3390 C   0  0  0  0  0  0  0  0  0  0  0  0
   96.2640  105.6570  107.3130 Cl  0  0  0  0  0  0  0  0  0  0  0  0
   98.2890   99.8250  103.4860 C   0  0  0  0  0  0  0  0  0  0  0  0
   98.8190   98.9770  104.6620 C   0  0  0  0  0  0  0  0  0  0  0  0
   99.5660  100.4300  102.8530 C   0  0  0  0  0  0  0  0  0  0  0  0
  100.2020   99.5260  104.9670 C   0  0  0  0  0  0  0  0  0  0  0  0
  100.7500   99.8140  103.5840 C   0  0  0  0  0  0  0  0  0  0  0  0
   90.3400   97.0410  104.7580 C   0  0  0  0  0  0  0  0  0  0  0  0
   90.4230   95.7730  104.7830 O   0  0  0  0  0  0  0  0  0  0  0  0
   89.2650   97.7180  104.7290 O   0  0  0  0  0  0  0  0  0  0  0  0
  1  2  1  0  0  0  0
  1 14  1  0  0  0  0
  3  4  1  0  0  0  0
  3  2  2  0  0  0  0
  4  5  1  0  0  0  0
  6  5  2  0  0  0  0
  7  6  1  0  0  0  0
  8  7  2  0  0  0  0
  9  8  1  0  0  0  0
  9  4  2  0  0  0  0
 10 11  1  0  0  0  0
 10  9  1  0  0  0  0
 12 11  1  6  0  0  0
 12 13  1  0  0  0  0
 12  3  1  0  0  0  0
 13 23  1  1  0  0  0
 13  1  1  0  0  0  0
 14 21  2  0  0  0  0
 14 20  1  0  0  0  0
 16 15  3  0  0  0  0
 17 16  1  0  0  0  0
 18 17  1  0  0  0  0
 19 22  1  0  0  0  0
 19 17  2  0  0  0  0
 20 18  2  0  0  0  0
 21 19  1  0  0  0  0
 23 24  1  0  0  0  0
 24 26  1  0  0  0  0
 25 23  1  0  0  0  0
 25 27  1  0  0  0  0
 27 26  1  0  0  0  0
 28  7  1  0  0  0  0
 28 29  1  0  0  0  0
 30 28  2  0  0  0  0
M  END
>  <minimizedAffinity>
-8.6795063

>  <CNNscore>
0.48489064

>  <CNNaffinity>
6.61548376

$$$$

 OpenBabel08272610403D

 30 34  0  0  1  0  0  0  0  0999 V2000
   98.2510  101.5270  105.3100 N   0  0  0  0  0  0  0  0  0  0  0  0
   99.0340  100.4840  105.7410 N   0  0  0  0  0  0  0  0  0  0  0  0
  100.1960  100.9790  106.0350 C   0  0  0  0  0  0  0  0  0  0  0  0
  101.3360  100.2230  106.5800 C   0  0  0  0  0  0  0  0  0  0  0  0
  101.2430   98.8420  106.7600 C   0  0  0  0  0  0  0  0  0  0  0  0
  102.3370   98.1380  107.2690 C   0  0  0  0  0  0  0  0  0  0  0  0
  103.5320   98.7980  107.6020 C   0  0  0  0  0  0  0  0  0  0  0  0
  103.6010  100.1900  107.4160 C   0  0  0  0  0  0  0  0  0  0  0  0
  102.5100  100.9160  106.9210 C   0  0  0  0  0  0  0  0  0  0  0  0
  102.6380  102.4050  106.7250 C   0  0  0  0  0  0  0  0  0  0  0  0
  101.2740  103.1000  106.7360 C   0  0  0  0  0  0  0  0  0  0  0  0
  100.3580  102.4410  105.7200 C   0  0  2  0  0  0  0  0  0  0  0  0
   98.8680  102.8330  105.6220 C   0  0  2  0  0  0  0  0  0  0  0  0
   97.3510  101.2860  104.2650 C   0  0  0  0  0  0  0  0  0  0  0  0
   93.9000  100.3600  100.1640 N   0  0  0  0  0  0  0  0  0  0  0  0
   94.6300  100.6140  101.0310 C   0  0  0  0  0  0  0  0  0  0  0  0
   95.5380  100.8690  102.1090 C   0  0  0  0  0  0  0  0  0  0  0  0
   96.0820   99.7860  102.8030 C   0  0  0  0  0  0  0  0  0  0  0  0
   95.9020  102.1620  102.4840 C   0  0  0  0  0  0  0  0  0  0  0  0
   96.9760   99.9960  103.8620 C   0  0  0  0  0  0  0  0  0  0  0  0
   96.7970  102.3600  103.5430 C   0  0  0  0  0  0  0  0  0  0  0  0
   95.2840  103.5570  101.6700 Cl  0  0  0  0  0  0  0  0  0  0  0  0
   98.2520  103.4310  106.9180 C   0  0  0  0  0  0  0  0  0  0  0  0
   97.8960  104.9300  106.8480 C   0  0  0  0  0  0  0  0  0  0  0  0
   99.2270  103.3310  108.1170 C   0  0  0  0  0  0  0  0  0  0  0  0
   99.0090  105.6480  107.5910 C   0  0  0  0  0  0  0  0  0  0  0  0
   99.2810  104.7140  108.7520 C   0  0  0  0  0  0  0  0  0  0  0  0
  104.7220   98.0300  108.1470 C   0  0  0  0  0  0  0  0  0  0  0  0
  105.3450   97.2750  107.3370 O   0  0  0  0  0  0  0  0  0  0  0  0
  105.0040   98.2010  109.3750 O   0  0  0  0  0  0  0  0  0  0  0  0
  1 13  1  0  0  0  0
  1  2  1  0  0  0  0
  2  3  2  0  0  0  0
  3  4  1  0  0  0  0
  4  5  2  0  0  0  0
  4  9  1  0  0  0  0
  5  6  1  0  0  0  0
  6  7  2  0  0  0  0
  7 28  1  0  0  0  0
  8  7  1  0  0  0  0
  9  8  2  0  0  0  0
 10 11  1  0  0  0  0
 10  9  1  0  0  0  0
 12  3  1  0  0  0  0
 12 11  1  1  0  0  0
 13 12  1  0  0  0  0
 13 23  1  1  0  0  0
 14  1  1  0  0  0  0
 15 16  3  0  0  0  0
 16 17  1  0  0  0  0
 17 19  2  0  0  0  0
 17 18  1  0  0  0  0
 18 20  2  0  0  0  0
 19 21  1  0  0  0  0
 20 14  1  0  0  0  0
 21 14  2  0  0  0  0
 22 19  1  0  0  0  0
 23 25  1  0  0  0  0
 24 23  1  0  0  0  0
 24 26  1  0  0  0  0
 25 27  1  0  0  0  0
 26 27  1  0  0  0  0
 28 30  1  0  0  0  0
 29 28  2  0  0  0  0
M  END
>  <minimizedAffinity>
-9.42236328

>  <CNNscore>
0.467831641

>  <CNNaffinity>
6.94857168

$$$$

 OpenBabel08272610403D

 30 34  0  0  1  0  0  0  0  0999 V2000
   95.3030  100.7190  104.0320 N   0  0  0  0  0  0  0  0  0  0  0  0
   96.3130  100.1130  103.3260 N   0  0  0  0  0  0  0  0  0  0  0  0
   97.3210  100.9300  103.3300 C   0  0  0  0  0  0  0  0  0  0  0  0
   98.6390  100.6690  102.7270 C   0  0  0  0  0  0  0  0  0  0  0  0
   98.8660   99.4870  102.0200 C   0  0  0  0  0  0  0  0  0  0  0  0
  100.1190   99.2580  101.4430 C   0  0  0  0  0  0  0  0  0  0  0  0
  101.1530  100.2010  101.5630 C   0  0  0  0  0  0  0  0  0  0  0  0
  100.9020  101.3820  102.2830 C   0  0  0  0  0  0  0  0  0  0  0  0
   99.6570  101.6230  102.8810 C   0  0  0  0  0  0  0  0  0  0  0  0
   99.4320  102.9120  103.6300 C   0  0  0  0  0  0  0  0  0  0  0  0
   98.3020  102.7830  104.6550 C   0  0  0  0  0  0  0  0  0  0  0  0
   97.0500  102.2640  103.9710 C   0  0  2  0  0  0  0  0  0  0  0  0
   95.7950  101.8880  104.7890 C   0  0  2  0  0  0  0  0  0  0  0  0
   93.9890  100.5400  103.5840 C   0  0  0  0  0  0  0  0  0  0  0  0
   88.9050   99.8110  101.7920 N   0  0  0  0  0  0  0  0  0  0  0  0
   89.9960  100.0090  102.1350 C   0  0  0  0  0  0  0  0  0  0  0  0
   91.3370  100.2090  102.5990 C   0  0  0  0  0  0  0  0  0  0  0  0
   91.8100   99.4250  103.6540 C   0  0  0  0  0  0  0  0  0  0  0  0
   92.1880  101.1560  102.0280 C   0  0  0  0  0  0  0  0  0  0  0  0
   93.1170   99.5890  104.1330 C   0  0  0  0  0  0  0  0  0  0  0  0
   93.4920  101.3110  102.5150 C   0  0  0  0  0  0  0  0  0  0  0  0
   91.6860  102.1590  100.7120 Cl  0  0  0  0  0  0  0  0  0  0  0  0
   96.0600  101.5050  106.2720 C   0  0  0  0  0  0  0  0  0  0  0  0
   95.0510  102.0740  107.2910 C   0  0  0  0  0  0  0  0  0  0  0  0
   97.4300  102.0310  106.7660 C   0  0  0  0  0  0  0  0  0  0  0  0
   95.7530  103.2510  107.9450 C   0  0  0  0  0  0  0  0  0  0  0  0
   97.1740  102.7450  108.0860 C   0  0  0  0  0  0  0  0  0  0  0  0
  102.5110   99.9550  100.9300 C   0  0  0  0  0  0  0  0  0  0  0  0
  102.8830   98.7460  100.8090 O   0  0  0  0  0  0  0  0  0  0  0  0
  103.1720  100.9790  100.5700 O   0  0  0  0  0  0  0  0  0  0  0  0
  1 13  1  0  0  0  0
  2  3  2  0  0  0  0
  2  1  1  0  0  0  0
  3 12  1  0  0  0  0
  4  9  1  0  0  0  0
  4  3  1  0  0  0  0
  5  4  2  0  0  0  0
  6  7  2  0  0  0  0
  6  5  1  0  0  0  0
  7  8  1  0  0  0  0
  8  9  2  0  0  0  0
  9 10  1  0  0  0  0
 10 11  1  0  0  0  0
 12 11  1  1  0  0  0
 12 13  1  0  0  0  0
 13 23  1  1  0  0  0
 14  1  1  0  0  0  0
 14 20  1  0  0  0  0
 15 16  3  0  0  0  0
 16 17  1  0  0  0  0
 17 18  1  0  0  0  0
 18 20  2  0  0  0  0
 19 21  1  0  0  0  0
 19 17  2  0  0  0  0
 21 14  2  0  0  0  0
 22 19  1  0  0  0  0
 23 25  1  0  0  0  0
 23 24  1  0  0  0  0
 24 26  1  0  0  0  0
 25 27  1  0  0  0  0
 26 27  1  0  0  0  0
 28  7  1  0  0  0  0
 29 28  1  0  0  0  0
 30 28  2  0  0  0  0
M  END
>  <minimizedAffinity>
0.947980702

>  <CNNscore>
0.448972166

>  <CNNaffinity>
6.18071795

$$$$

 OpenBabel08272610403D

 30 34  0  0  1  0  0  0  0  0999 V2000
  101.1420  101.9620  105.7910 N   0  0  0  0  0  0  0  0  0  0  0  0
  100.6140  103.0900  106.3710 N   0  0  0  0  0  0  0  0  0  0  0  0
  101.0350  104.1040  105.6810 C   0  0  0  0  0  0  0  0  0  0  0  0
  100.6780  105.5120  105.9210 C   0  0  0  0  0  0  0  0  0  0  0  0
   99.8730  105.8570  107.0080 C   0  0  0  0  0  0  0  0  0  0  0  0
   99.5510  107.1990  107.2290 C   0  0  0  0  0  0  0  0  0  0  0  0
  100.0280  108.2070  106.3740 C   0  0  0  0  0  0  0  0  0  0  0  0
  100.8340  107.8360  105.2840 C   0  0  0  0  0  0  0  0  0  0  0  0
  101.1550  106.4940  105.0380 C   0  0  0  0  0  0  0  0  0  0  0  0
  102.0350  106.1460  103.8640 C   0  0  0  0  0  0  0  0  0  0  0  0
  101.8300  104.7000  103.4080 C   0  0  0  0  0  0  0  0  0  0  0  0
  102.0120  103.7620  104.5890 C   0  0  2  0  0  0  0  0  0  0  0  0
  101.7110  102.2530  104.4590 C   0  0  2  0  0  0  0  0  0  0  0  0
  101.5410  100.9160  106.6310 C   0  0  0  0  0  0  0  0  0  0  0  0
  103.1540   96.8740  109.8950 N   0  0  0  0  0  0  0  0  0  0  0  0
  102.8320   97.7080  109.1540 C   0  0  0  0  0  0  0  0  0  0  0  0
  102.4120   98.7670  108.2860 C   0  0  0  0  0  0  0  0  0  0  0  0
  101.7170   99.8500  108.8290 C   0  0  0  0  0  0  0  0  0  0  0  0
  102.6810   98.7570  106.9170 C   0  0  0  0  0  0  0  0  0  0  0  0
  101.2930  100.9070  108.0120 C   0  0  0  0  0  0  0  0  0  0  0  0
  102.2530   99.8180  106.1100 C   0  0  0  0  0  0  0  0  0  0  0  0
  103.5460   97.4620  106.1650 Cl  0  0  0  0  0  0  0  0  0  0  0  0
  100.7010  101.8710  103.3400 C   0  0  0  0  0  0  0  0  0  0  0  0
   99.4020  101.1940  103.8270 C   0  0  0  0  0  0  0  0  0  0  0  0
  101.3050  100.8530  102.3430 C   0  0  0  0  0  0  0  0  0  0  0  0
   99.5830   99.7140  103.5390 C   0  0  0  0  0  0  0  0  0  0  0  0
  100.2900   99.7270  102.1990 C   0  0  0  0  0  0  0  0  0  0  0  0
   99.6840  109.6660  106.6200 C   0  0  0  0  0  0  0  0  0  0  0  0
   98.6640  110.1300  106.0220 O   0  0  0  0  0  0  0  0  0  0  0  0
  100.4460  110.3120  107.4060 O   0  0  0  0  0  0  0  0  0  0  0  0
  1  2  1  0  0  0  0
  1 14  1  0  0  0  0
  3  4  1  0  0  0  0
  3  2  2  0  0  0  0
  4  5  1  0  0  0  0
  5  6  2  0  0  0  0
  7 28  1  0  0  0  0
  7  6  1  0  0  0  0
  8  7  2  0  0  0  0
  9  8  1  0  0  0  0
  9  4  2  0  0  0  0
 10  9  1  0  0  0  0
 11 10  1  0  0  0  0
 12 11  1  6  0  0  0
 12  3  1  0  0  0  0
 13 23  1  6  0  0  0
 13 12  1  0  0  0  0
 13  1  1  0  0  0  0
 14 20  1  0  0  0  0
 16 15  3  0  0  0  0
 17 18  1  0  0  0  0
 17 16  1  0  0  0  0
 19 17  2  0  0  0  0
 20 18  2  0  0  0  0
 21 14  2  0  0  0  0
 21 19  1  0  0  0  0
 22 19  1  0  0  0  0
 23 24  1  0  0  0  0
 25 23  1  0  0  0  0
 26 24  1  0  0  0  0
 27 25  1  0  0  0  0
 27 26  1  0  0  0  0
 28 30  1  0  0  0  0
 29 28  2  0  0  0  0
M  END
>  <minimizedAffinity>
-6.39962149

>  <CNNscore>
0.44494158

>  <CNNaffinity>
7.23645401

$$$$

 OpenBabel08272610403D

 30 34  0  0  1  0  0  0  0  0999 V2000
   99.3800  103.0410  105.5500 N   0  0  0  0  0  0  0  0  0  0  0  0
   98.1150  102.6100  105.2310 N   0  0  0  0  0  0  0  0  0  0  0  0
   98.2480  101.6410  104.3800 C   0  0  0  0  0  0  0  0  0  0  0  0
   97.1470  100.8530  103.8000 C   0  0  0  0  0  0  0  0  0  0  0  0
   95.8220  101.1660  104.1040 C   0  0  0  0  0  0  0  0  0  0  0  0
   94.7880  100.4160  103.5380 C   0  0  0  0  0  0  0  0  0  0  0  0
   95.0620   99.3490  102.6660 C   0  0  0  0  0  0  0  0  0  0  0  0
   96.4050   99.0480  102.3780 C   0  0  0  0  0  0  0  0  0  0  0  0
   97.4560   99.7810  102.9470 C   0  0  0  0  0  0  0  0  0  0  0  0
   98.8790   99.4300  102.5950 C   0  0  0  0  0  0  0  0  0  0  0  0
   99.8620   99.8970  103.6710 C   0  0  0  0  0  0  0  0  0  0  0  0
   99.6610  101.3780  103.9370 C   0  0  2  0  0  0  0  0  0  0  0  0
  100.4090  102.0880  105.0870 C   0  0  2  0  0  0  0  0  0  0  0  0
   99.5770  104.4130  105.7480 C   0  0  0  0  0  0  0  0  0  0  0  0
  100.3250  109.7530  106.4590 N   0  0  0  0  0  0  0  0  0  0  0  0
  100.2170  108.6110  106.2810 C   0  0  0  0  0  0  0  0  0  0  0  0
  100.0290  107.2040  106.0870 C   0  0  0  0  0  0  0  0  0  0  0  0
   98.8750  106.6010  106.5940 C   0  0  0  0  0  0  0  0  0  0  0  0
  100.9570  106.4170  105.4050 C   0  0  0  0  0  0  0  0  0  0  0  0
   98.6550  105.2280  106.4220 C   0  0  0  0  0  0  0  0  0  0  0  0
  100.7270  105.0460  105.2380 C   0  0  0  0  0  0  0  0  0  0  0  0
  102.4050  107.0850  104.7360 Cl  0  0  0  0  0  0  0  0  0  0  0  0
  100.8620  101.1650  106.2540 C   0  0  0  0  0  0  0  0  0  0  0  0
  100.5970  101.7170  107.6710 C   0  0  0  0  0  0  0  0  0  0  0  0
  102.3890  100.9120  106.2280 C   0  0  0  0  0  0  0  0  0  0  0  0
  101.9370  102.2330  108.1630 C   0  0  0  0  0  0  0  0  0  0  0  0
  102.9020  101.1910  107.6350 C   0  0  0  0  0  0  0  0  0  0  0  0
   93.9380   98.5390  102.0450 C   0  0  0  0  0  0  0  0  0  0  0  0
   92.8180   98.5480  102.6450 O   0  0  0  0  0  0  0  0  0  0  0  0
   94.2050   97.9110  100.9730 O   0  0  0  0  0  0  0  0  0  0  0  0
  1 14  1  0  0  0  0
  2  1  1  0  0  0  0
  3  2  2  0  0  0  0
  4  5  1  0  0  0  0
  4  3  1  0  0  0  0
  6  5  2  0  0  0  0
  7  6  1  0  0  0  0
  8  7  2  0  0  0  0
  8  9  1  0  0  0  0
  9  4  2  0  0  0  0
 10  9  1  0  0  0  0
 10 11  1  0  0  0  0
 12 11  1  1  0  0  0
 12  3  1  0  0  0  0
 12 13  1  0  0  0  0
 13  1  1  0  0  0  0
 13 23  1  1  0  0  0
 14 20  1  0  0  0  0
 16 15  3  0  0  0  0
 17 16  1  0  0  0  0
 17 18  1  0  0  0  0
 19 17  2  0  0  0  0
 20 18  2  0  0  0  0
 21 19  1  0  0  0  0
 21 14  2  0  0  0  0
 22 19  1  0  0  0  0
 23 24  1  0  0  0  0
 24 26  1  0  0  0  0
 25 23  1  0  0  0  0
 25 27  1  0  0  0  0
 27 26  1  0  0  0  0
 28 29  1  0  0  0  0
 28  7  1  0  0  0  0
 30 28  2  0  0  0  0
M  END
>  <minimizedAffinity>
-9.60683727

>  <CNNscore>
0.4350622

>  <CNNaffinity>
6.75362349

$$$$
