
 OpenBabel08282606503D

 35 39  0  0  1  0  0  0  0  0999 V2000
   99.7580  101.5210  104.9290 C   0  0  2  0  0  0  0  0  0  0  0  0
   98.3130  101.2770  105.3800 C   0  0  0  0  0  0  0  0  0  0  0  0
   97.3660  101.6720  104.2570 C   0  0  1  0  0  0  0  0  0  0  0  0
   97.5700  100.8960  103.0650 O   0  0  0  0  0  0  0  0  0  0  0  0
   98.8740  100.6490  102.7260 C   0  0  0  0  0  0  0  0  0  0  0  0
   99.0580  100.0870  101.4600 C   0  0  0  0  0  0  0  0  0  0  0  0
  100.3400   99.7900  101.0010 C   0  0  0  0  0  0  0  0  0  0  0  0
  101.4400  100.0530  101.8100 C   0  0  0  0  0  0  0  0  0  0  0  0
  101.2580  100.6090  103.0780 C   0  0  0  0  0  0  0  0  0  0  0  0
   99.9710  100.8970  103.5630 C   0  0  0  0  0  0  0  0  0  0  0  0
  100.7360  101.0920  106.0140 C   0  0  0  0  0  0  0  0  0  0  0  0
  102.4910  100.2600  108.0800 C   0  0  0  0  0  0  0  0  0  0  0  0
  101.7430  101.4440  108.1960 C   0  0  0  0  0  0  0  0  0  0  0  0
  102.3830   99.4870  106.9050 C   0  0  0  0  0  0  0  0  0  0  0  0
  100.8710  101.8510  107.1820 C   0  0  0  0  0  0  0  0  0  0  0  0
  101.5150   99.9320  105.8870 C   0  0  0  0  0  0  0  0  0  0  0  0
  103.3900   99.8560  109.2170 C   0  0  0  0  0  0  0  0  0  0  0  0
  103.1300   98.1810  106.6820 C   0  0  0  0  0  0  0  0  0  0  0  0
  104.0320   97.8960  107.5340 O   0  0  0  0  0  0  0  0  0  0  0  0
  102.8050   97.4680  105.6820 O   0  0  0  0  0  0  0  0  0  0  0  0
   95.8760  101.5530  104.6630 C   0  0  0  0  0  0  0  0  0  0  0  0
   95.3230  102.5880  105.5540 N   0  0  0  0  0  0  0  0  0  0  0  0
   95.7950  102.4790  106.4560 H   0  0  0  0  0  0  0  0  0  0  0  0
   95.5260  103.9840  105.1270 C   0  0  2  0  0  0  0  0  0  0  0  0
   95.4780  104.0450  103.5930 C   0  0  0  0  0  0  0  0  0  0  0  0
   96.7910  104.6670  105.6400 C   0  0  0  0  0  0  0  0  0  0  0  0
   97.4040  105.5820  104.7560 C   0  0  0  0  0  0  0  0  0  0  0  0
   97.4020  104.4190  106.9100 C   0  0  0  0  0  0  0  0  0  0  0  0
   98.5650  106.2620  105.1030 C   0  0  0  0  0  0  0  0  0  0  0  0
   96.9050  103.5080  107.8740 C   0  0  0  0  0  0  0  0  0  0  0  0
   98.5890  105.1240  107.2470 C   0  0  0  0  0  0  0  0  0  0  0  0
   99.1500  106.0370  106.3430 C   0  0  0  0  0  0  0  0  0  0  0  0
   97.5380  103.3050  109.1040 C   0  0  0  0  0  0  0  0  0  0  0  0
   99.2130  104.9110  108.4880 C   0  0  0  0  0  0  0  0  0  0  0  0
   98.6930  104.0070  109.4110 C   0  0  0  0  0  0  0  0  0  0  0  0
  1  2  1  0  0  0  0
  1 11  1  1  0  0  0
  3 21  1  1  0  0  0
  3  2  1  0  0  0  0
  4  3  1  0  0  0  0
  5  4  1  0  0  0  0
  5 10  1  0  0  0  0
  6  5  2  0  0  0  0
  7  6  1  0  0  0  0
  7  8  2  0  0  0  0
  8  9  1  0  0  0  0
  9 10  2  0  0  0  0
 10  1  1  0  0  0  0
 11 15  1  0  0  0  0
 12 13  1  0  0  0  0
 12 17  1  0  0  0  0
 14 12  2  0  0  0  0
 15 13  2  0  0  0  0
 16 11  2  0  0  0  0
 16 14  1  0  0  0  0
 18 14  1  0  0  0  0
 18 19  1  0  0  0  0
 20 18  2  0  0  0  0
 21 22  1  0  0  0  0
 22 23  1  0  0  0  0
 24 25  1  6  0  0  0
 24 22  1  0  0  0  0
 24 26  1  0  0  0  0
 26 28  1  0  0  0  0
 27 29  1  0  0  0  0
 27 26  2  0  0  0  0
 28 31  2  0  0  0  0
 28 30  1  0  0  0  0
 29 32  2  0  0  0  0
 30 33  2  0  0  0  0
 31 34  1  0  0  0  0
 32 31  1  0  0  0  0
 33 35  1  0  0  0  0
 34 35  2  0  0  0  0
M  END
>  <minimizedAffinity>
-9.93314552

>  <CNNscore>
0.716554642

>  <CNNaffinity>
7.29703903

$$$$

 OpenBabel08282606503D

 35 39  0  0  1  0  0  0  0  0999 V2000
   99.0210  101.6000  103.8920 C   0  0  2  0  0  0  0  0  0  0  0  0
   98.0370  102.6450  104.4300 C   0  0  0  0  0  0  0  0  0  0  0  0
   96.7900  102.6530  103.5580 C   0  0  1  0  0  0  0  0  0  0  0  0
   96.1050  101.3900  103.5640 O   0  0  0  0  0  0  0  0  0  0  0  0
   96.9000  100.2760  103.5090 C   0  0  0  0  0  0  0  0  0  0  0  0
   96.2190   99.0750  103.2960 C   0  0  0  0  0  0  0  0  0  0  0  0
   96.9190   97.8720  103.2210 C   0  0  0  0  0  0  0  0  0  0  0  0
   98.3030   97.8700  103.3600 C   0  0  0  0  0  0  0  0  0  0  0  0
   98.9850   99.0680  103.5800 C   0  0  0  0  0  0  0  0  0  0  0  0
   98.2920  100.2870  103.6760 C   0  0  0  0  0  0  0  0  0  0  0  0
  100.2620  101.5330  104.7710 C   0  0  0  0  0  0  0  0  0  0  0  0
  102.5280  101.4370  106.4740 C   0  0  0  0  0  0  0  0  0  0  0  0
  102.1050  102.6460  105.8940 C   0  0  0  0  0  0  0  0  0  0  0  0
  101.8250  100.2490  106.1820 C   0  0  0  0  0  0  0  0  0  0  0  0
  100.9840  102.6960  105.0610 C   0  0  0  0  0  0  0  0  0  0  0  0
  100.7120  100.3230  105.3190 C   0  0  0  0  0  0  0  0  0  0  0  0
  103.7240  101.4490  107.3860 C   0  0  0  0  0  0  0  0  0  0  0  0
  102.1820   98.8920  106.7680 C   0  0  0  0  0  0  0  0  0  0  0  0
  102.0790   98.7790  108.0320 O   0  0  0  0  0  0  0  0  0  0  0  0
  102.5460   97.9730  105.9700 O   0  0  0  0  0  0  0  0  0  0  0  0
   95.7800  103.7530  103.9690 C   0  0  0  0  0  0  0  0  0  0  0  0
   95.7500  104.1610  105.3840 N   0  0  0  0  0  0  0  0  0  0  0  0
   94.7800  104.0670  105.6950 H   0  0  0  0  0  0  0  0  0  0  0  0
   96.5780  103.3620  106.3050 C   0  0  2  0  0  0  0  0  0  0  0  0
   95.6600  102.4540  107.1370 C   0  0  0  0  0  0  0  0  0  0  0  0
   97.5130  104.1470  107.2230 C   0  0  0  0  0  0  0  0  0  0  0  0
   97.5640  103.7190  108.5670 C   0  0  0  0  0  0  0  0  0  0  0  0
   98.2880  105.2820  106.8280 C   0  0  0  0  0  0  0  0  0  0  0  0
   98.3700  104.3570  109.5030 C   0  0  0  0  0  0  0  0  0  0  0  0
   98.3050  105.8280  105.5220 C   0  0  0  0  0  0  0  0  0  0  0  0
   99.1070  105.9210  107.7990 C   0  0  0  0  0  0  0  0  0  0  0  0
   99.1390  105.4480  109.1190 C   0  0  0  0  0  0  0  0  0  0  0  0
   99.0860  106.9370  105.1860 C   0  0  0  0  0  0  0  0  0  0  0  0
   99.8880  107.0350  107.4480 C   0  0  0  0  0  0  0  0  0  0  0  0
   99.8780  107.5420  106.1490 C   0  0  0  0  0  0  0  0  0  0  0  0
  1  2  1  0  0  0  0
  1 11  1  1  0  0  0
  3  4  1  0  0  0  0
  3 21  1  1  0  0  0
  3  2  1  0  0  0  0
  5  4  1  0  0  0  0
  5 10  1  0  0  0  0
  6  5  2  0  0  0  0
  7  6  1  0  0  0  0
  7  8  2  0  0  0  0
  8  9  1  0  0  0  0
  9 10  2  0  0  0  0
 10  1  1  0  0  0  0
 11 15  2  0  0  0  0
 11 16  1  0  0  0  0
 12 17  1  0  0  0  0
 13 12  2  0  0  0  0
 14 12  1  0  0  0  0
 14 18  1  0  0  0  0
 15 13  1  0  0  0  0
 16 14  2  0  0  0  0
 18 19  1  0  0  0  0
 20 18  2  0  0  0  0
 21 22  1  0  0  0  0
 22 23  1  0  0  0  0
 22 24  1  0  0  0  0
 24 25  1  1  0  0  0
 24 26  1  0  0  0  0
 26 27  1  0  0  0  0
 27 29  2  0  0  0  0
 28 26  2  0  0  0  0
 28 31  1  0  0  0  0
 30 28  1  0  0  0  0
 31 32  2  0  0  0  0
 32 29  1  0  0  0  0
 33 30  2  0  0  0  0
 33 35  1  0  0  0  0
 34 31  1  0  0  0  0
 35 34  2  0  0  0  0
M  END
>  <minimizedAffinity>
-10.3297434

>  <CNNscore>
0.662425756

>  <CNNaffinity>
6.94151163

$$$$

 OpenBabel08282606503D

 35 39  0  0  1  0  0  0  0  0999 V2000
   98.9920  102.4310  106.9570 C   0  0  2  0  0  0  0  0  0  0  0  0
   98.6490  102.3750  105.4640 C   0  0  0  0  0  0  0  0  0  0  0  0
   97.3130  103.0640  105.2320 C   0  0  1  0  0  0  0  0  0  0  0  0
   97.3370  104.4520  105.6050 O   0  0  0  0  0  0  0  0  0  0  0  0
   98.0020  104.7510  106.7640 C   0  0  0  0  0  0  0  0  0  0  0  0
   97.8300  106.0590  107.2230 C   0  0  0  0  0  0  0  0  0  0  0  0
   98.4570  106.4830  108.3930 C   0  0  0  0  0  0  0  0  0  0  0  0
   99.2580  105.5980  109.1060 C   0  0  0  0  0  0  0  0  0  0  0  0
   99.4370  104.2910  108.6460 C   0  0  0  0  0  0  0  0  0  0  0  0
   98.8260  103.8540  107.4580 C   0  0  0  0  0  0  0  0  0  0  0  0
  100.3470  101.7900  107.2190 C   0  0  0  0  0  0  0  0  0  0  0  0
  102.8490  100.5800  107.7870 C   0  0  0  0  0  0  0  0  0  0  0  0
  102.5940  101.9190  108.1320 C   0  0  0  0  0  0  0  0  0  0  0  0
  101.8490   99.8360  107.1260 C   0  0  0  0  0  0  0  0  0  0  0  0
  101.3590  102.5140  107.8600 C   0  0  0  0  0  0  0  0  0  0  0  0
  100.6210  100.4660  106.8410 C   0  0  0  0  0  0  0  0  0  0  0  0
  104.1860   99.9840  108.1320 C   0  0  0  0  0  0  0  0  0  0  0  0
  102.0100   98.3780  106.7240 C   0  0  0  0  0  0  0  0  0  0  0  0
  102.1520   98.1480  105.4800 O   0  0  0  0  0  0  0  0  0  0  0  0
  102.0010   97.5000  107.6420 O   0  0  0  0  0  0  0  0  0  0  0  0
   96.8380  102.9660  103.7610 C   0  0  0  0  0  0  0  0  0  0  0  0
   95.5830  102.2430  103.4930 N   0  0  0  0  0  0  0  0  0  0  0  0
   95.0120  102.8550  102.9050 H   0  0  0  0  0  0  0  0  0  0  0  0
   95.7170  100.9610  102.7780 C   0  0  2  0  0  0  0  0  0  0  0  0
   94.3220  100.3470  102.5930 C   0  0  0  0  0  0  0  0  0  0  0  0
   96.6620   99.9370  103.4040 C   0  0  0  0  0  0  0  0  0  0  0  0
   96.1330   99.1750  104.4680 C   0  0  0  0  0  0  0  0  0  0  0  0
   98.0250   99.7340  103.0180 C   0  0  0  0  0  0  0  0  0  0  0  0
   96.8960   98.2170  105.1250 C   0  0  0  0  0  0  0  0  0  0  0  0
   98.6820  100.4510  101.9890 C   0  0  0  0  0  0  0  0  0  0  0  0
   98.7890   98.7500  103.7030 C   0  0  0  0  0  0  0  0  0  0  0  0
   98.2130   98.0040  104.7410 C   0  0  0  0  0  0  0  0  0  0  0  0
  100.0160  100.2100  101.6470 C   0  0  0  0  0  0  0  0  0  0  0  0
  100.1280   98.5170  103.3480 C   0  0  0  0  0  0  0  0  0  0  0  0
  100.7400   99.2420  102.3270 C   0  0  0  0  0  0  0  0  0  0  0  0
  1 11  1  6  0  0  0
  1 10  1  0  0  0  0
  2  1  1  0  0  0  0
  3 21  1  6  0  0  0
  3  2  1  0  0  0  0
  3  4  1  0  0  0  0
  4  5  1  0  0  0  0
  5  6  2  0  0  0  0
  5 10  1  0  0  0  0
  6  7  1  0  0  0  0
  7  8  2  0  0  0  0
  9  8  1  0  0  0  0
 10  9  2  0  0  0  0
 11 15  1  0  0  0  0
 12 13  1  0  0  0  0
 12 17  1  0  0  0  0
 14 12  2  0  0  0  0
 15 13  2  0  0  0  0
 16 14  1  0  0  0  0
 16 11  2  0  0  0  0
 18 14  1  0  0  0  0
 18 20  1  0  0  0  0
 19 18  2  0  0  0  0
 22 21  1  0  0  0  0
 23 22  1  0  0  0  0
 24 25  1  1  0  0  0
 24 26  1  0  0  0  0
 24 22  1  0  0  0  0
 26 27  1  0  0  0  0
 27 29  2  0  0  0  0
 28 26  2  0  0  0  0
 28 31  1  0  0  0  0
 30 28  1  0  0  0  0
 31 32  2  0  0  0  0
 32 29  1  0  0  0  0
 33 30  2  0  0  0  0
 33 35  1  0  0  0  0
 34 31  1  0  0  0  0
 35 34  2  0  0  0  0
M  END
>  <minimizedAffinity>
-10.1278563

>  <CNNscore>
0.539164186

>  <CNNaffinity>
6.92374754

$$$$

 OpenBabel08282606503D

 35 39  0  0  1  0  0  0  0  0999 V2000
   99.7590  101.7750  105.0690 C   0  0  2  0  0  0  0  0  0  0  0  0
   98.3440  101.6580  105.6460 C   0  0  0  0  0  0  0  0  0  0  0  0
   97.3360  102.0880  104.5900 C   0  0  1  0  0  0  0  0  0  0  0  0
   97.3810  101.2600  103.4160 O   0  0  0  0  0  0  0  0  0  0  0  0
   98.6290  100.9030  102.9810 C   0  0  0  0  0  0  0  0  0  0  0  0
   98.6630  100.2890  101.7270 C   0  0  0  0  0  0  0  0  0  0  0  0
   99.8760   99.8790  101.1760 C   0  0  0  0  0  0  0  0  0  0  0  0
  101.0570  100.0830  101.8810 C   0  0  0  0  0  0  0  0  0  0  0  0
  101.0250  100.6920  103.1380 C   0  0  0  0  0  0  0  0  0  0  0  0
   99.8080  101.0940  103.7150 C   0  0  0  0  0  0  0  0  0  0  0  0
  100.7910  101.3080  106.0850 C   0  0  0  0  0  0  0  0  0  0  0  0
  102.6520  100.4340  108.0390 C   0  0  0  0  0  0  0  0  0  0  0  0
  102.2590  101.7820  107.9610 C   0  0  0  0  0  0  0  0  0  0  0  0
  102.1270   99.5080  107.1130 C   0  0  0  0  0  0  0  0  0  0  0  0
  101.3360  102.2120  107.0040 C   0  0  0  0  0  0  0  0  0  0  0  0
  101.2160   99.9720  106.1420 C   0  0  0  0  0  0  0  0  0  0  0  0
  103.6250  100.0230  109.1100 C   0  0  0  0  0  0  0  0  0  0  0  0
  102.4670   98.0250  107.1180 C   0  0  0  0  0  0  0  0  0  0  0  0
  102.0760   97.3610  108.1320 O   0  0  0  0  0  0  0  0  0  0  0  0
  103.1000   97.5530  106.1240 O   0  0  0  0  0  0  0  0  0  0  0  0
   95.8810  102.0970  105.1210 C   0  0  0  0  0  0  0  0  0  0  0  0
   95.6840  102.0590  106.5810 N   0  0  0  0  0  0  0  0  0  0  0  0
   96.4760  101.5430  106.9700 H   0  0  0  0  0  0  0  0  0  0  0  0
   95.6450  103.3670  107.2610 C   0  0  2  0  0  0  0  0  0  0  0  0
   94.9330  104.3780  106.3520 C   0  0  0  0  0  0  0  0  0  0  0  0
   96.9910  103.9270  107.7170 C   0  0  0  0  0  0  0  0  0  0  0  0
   97.4390  103.5050  108.9880 C   0  0  0  0  0  0  0  0  0  0  0  0
   97.7860  104.8570  106.9770 C   0  0  0  0  0  0  0  0  0  0  0  0
   98.6430  103.9510  109.5180 C   0  0  0  0  0  0  0  0  0  0  0  0
   97.4380  105.3790  105.7080 C   0  0  0  0  0  0  0  0  0  0  0  0
   99.0160  105.3020  107.5360 C   0  0  0  0  0  0  0  0  0  0  0  0
   99.4280  104.8390  108.7940 C   0  0  0  0  0  0  0  0  0  0  0  0
   98.2550  106.2830  105.0230 C   0  0  0  0  0  0  0  0  0  0  0  0
   99.8270  106.2100  106.8360 C   0  0  0  0  0  0  0  0  0  0  0  0
   99.4500  106.6990  105.5870 C   0  0  0  0  0  0  0  0  0  0  0  0
  1  2  1  0  0  0  0
  1 11  1  1  0  0  0
  3 21  1  1  0  0  0
  3  2  1  0  0  0  0
  4  3  1  0  0  0  0
  5  4  1  0  0  0  0
  5 10  1  0  0  0  0
  6  5  2  0  0  0  0
  7  6  1  0  0  0  0
  7  8  2  0  0  0  0
  8  9  1  0  0  0  0
  9 10  2  0  0  0  0
 10  1  1  0  0  0  0
 11 16  2  0  0  0  0
 11 15  1  0  0  0  0
 12 17  1  0  0  0  0
 13 12  1  0  0  0  0
 14 18  1  0  0  0  0
 14 12  2  0  0  0  0
 15 13  2  0  0  0  0
 16 14  1  0  0  0  0
 18 19  1  0  0  0  0
 20 18  2  0  0  0  0
 21 22  1  0  0  0  0
 22 23  1  0  0  0  0
 22 24  1  0  0  0  0
 24 25  1  6  0  0  0
 24 26  1  0  0  0  0
 26 27  1  0  0  0  0
 27 29  2  0  0  0  0
 28 31  1  0  0  0  0
 28 26  2  0  0  0  0
 30 28  1  0  0  0  0
 31 32  2  0  0  0  0
 32 29  1  0  0  0  0
 33 35  1  0  0  0  0
 33 30  2  0  0  0  0
 34 31  1  0  0  0  0
 35 34  2  0  0  0  0
M  END
>  <minimizedAffinity>
-10.4239588

>  <CNNscore>
0.525251865

>  <CNNaffinity>
6.93801355

$$$$

 OpenBabel08282606503D

 35 39  0  0  1  0  0  0  0  0999 V2000
   99.5150  101.5790  105.2640 C   0  0  2  0  0  0  0  0  0  0  0  0
   98.5520  102.5800  105.9120 C   0  0  0  0  0  0  0  0  0  0  0  0
   97.4860  102.9740  104.9020 C   0  0  1  0  0  0  0  0  0  0  0  0
   96.6970  101.8540  104.4670 O   0  0  0  0  0  0  0  0  0  0  0  0
   97.3830  100.6920  104.2330 C   0  0  0  0  0  0  0  0  0  0  0  0
   96.6430   99.6860  103.6070 C   0  0  0  0  0  0  0  0  0  0  0  0
   97.2310   98.4570  103.3150 C   0  0  0  0  0  0  0  0  0  0  0  0
   98.5620   98.2320  103.6500 C   0  0  0  0  0  0  0  0  0  0  0  0
   99.3020   99.2340  104.2810 C   0  0  0  0  0  0  0  0  0  0  0  0
   98.7180  100.4730  104.5980 C   0  0  0  0  0  0  0  0  0  0  0  0
  100.5700  101.1280  106.2640 C   0  0  0  0  0  0  0  0  0  0  0  0
  102.4740  100.2780  108.1870 C   0  0  0  0  0  0  0  0  0  0  0  0
  102.0160  101.6070  108.1550 C   0  0  0  0  0  0  0  0  0  0  0  0
  101.9940   99.3600  107.2290 C   0  0  0  0  0  0  0  0  0  0  0  0
  101.0720  102.0250  107.2130 C   0  0  0  0  0  0  0  0  0  0  0  0
  101.0610   99.8130  106.2750 C   0  0  0  0  0  0  0  0  0  0  0  0
  103.4690   99.8790  109.2420 C   0  0  0  0  0  0  0  0  0  0  0  0
  102.4060   97.8970  107.1830 C   0  0  0  0  0  0  0  0  0  0  0  0
  101.9800   97.1620  108.1310 O   0  0  0  0  0  0  0  0  0  0  0  0
  103.1280   97.5090  106.2130 O   0  0  0  0  0  0  0  0  0  0  0  0
   96.5250  104.0620  105.4410 C   0  0  0  0  0  0  0  0  0  0  0  0
   97.0180  104.9420  106.5150 N   0  0  0  0  0  0  0  0  0  0  0  0
   96.4580  104.7330  107.3450 H   0  0  0  0  0  0  0  0  0  0  0  0
   98.4330  104.7670  106.8930 C   0  0  2  0  0  0  0  0  0  0  0  0
   98.5110  104.4720  108.3980 C   0  0  0  0  0  0  0  0  0  0  0  0
   99.3710  105.9180  106.5340 C   0  0  0  0  0  0  0  0  0  0  0  0
   99.0620  107.1710  107.1060 C   0  0  0  0  0  0  0  0  0  0  0  0
  100.4910  105.8180  105.6500 C   0  0  0  0  0  0  0  0  0  0  0  0
   99.8350  108.2970  106.8500 C   0  0  0  0  0  0  0  0  0  0  0  0
  100.8900  104.6300  104.9920 C   0  0  0  0  0  0  0  0  0  0  0  0
  101.2700  106.9810  105.4000 C   0  0  0  0  0  0  0  0  0  0  0  0
  100.9340  108.2000  106.0060 C   0  0  0  0  0  0  0  0  0  0  0  0
  101.9970  104.5850  104.1390 C   0  0  0  0  0  0  0  0  0  0  0  0
  102.3810  106.9210  104.5420 C   0  0  0  0  0  0  0  0  0  0  0  0
  102.7440  105.7310  103.9140 C   0  0  0  0  0  0  0  0  0  0  0  0
  1  2  1  0  0  0  0
  1 11  1  1  0  0  0
  3 21  1  1  0  0  0
  3  2  1  0  0  0  0
  4  3  1  0  0  0  0
  5  4  1  0  0  0  0
  5 10  1  0  0  0  0
  6  5  2  0  0  0  0
  7  6  1  0  0  0  0
  7  8  2  0  0  0  0
  8  9  1  0  0  0  0
  9 10  2  0  0  0  0
 10  1  1  0  0  0  0
 11 16  2  0  0  0  0
 11 15  1  0  0  0  0
 12 17  1  0  0  0  0
 13 12  1  0  0  0  0
 14 12  2  0  0  0  0
 15 13  2  0  0  0  0
 16 14  1  0  0  0  0
 18 14  1  0  0  0  0
 18 19  1  0  0  0  0
 20 18  2  0  0  0  0
 21 22  1  0  0  0  0
 22 24  1  0  0  0  0
 22 23  1  0  0  0  0
 24 25  1  1  0  0  0
 26 24  1  0  0  0  0
 26 27  1  0  0  0  0
 28 26  2  0  0  0  0
 29 27  2  0  0  0  0
 30 28  1  0  0  0  0
 31 28  1  0  0  0  0
 31 32  2  0  0  0  0
 32 29  1  0  0  0  0
 33 30  2  0  0  0  0
 34 31  1  0  0  0  0
 35 33  1  0  0  0  0
 35 34  2  0  0  0  0
M  END
>  <minimizedAffinity>
-10.2273512

>  <CNNscore>
0.50442642

>  <CNNaffinity>
7.2194972

$$$$

 OpenBabel08282606503D

 35 39  0  0  1  0  0  0  0  0999 V2000
   96.5690  101.4390  105.0750 C   0  0  2  0  0  0  0  0  0  0  0  0
   97.7140  100.4280  104.9340 C   0  0  0  0  0  0  0  0  0  0  0  0
   97.2480   99.2620  104.0770 C   0  0  1  0  0  0  0  0  0  0  0  0
   96.8800   99.6660  102.7470 O   0  0  0  0  0  0  0  0  0  0  0  0
   96.1740  100.8350  102.6510 C   0  0  0  0  0  0  0  0  0  0  0  0
   95.6390  101.0990  101.3870 C   0  0  0  0  0  0  0  0  0  0  0  0
   94.9000  102.2580  101.1630 C   0  0  0  0  0  0  0  0  0  0  0  0
   94.6940  103.1570  102.2040 C   0  0  0  0  0  0  0  0  0  0  0  0
   95.2330  102.8990  103.4670 C   0  0  0  0  0  0  0  0  0  0  0  0
   95.9960  101.7430  103.7040 C   0  0  0  0  0  0  0  0  0  0  0  0
   97.0170  102.6430  105.8900 C   0  0  0  0  0  0  0  0  0  0  0  0
   97.9280  104.8490  107.4230 C   0  0  0  0  0  0  0  0  0  0  0  0
   97.4390  103.6860  108.0430 C   0  0  0  0  0  0  0  0  0  0  0  0
   97.9410  104.9260  106.0140 C   0  0  0  0  0  0  0  0  0  0  0  0
   96.9980  102.5950  107.2890 C   0  0  0  0  0  0  0  0  0  0  0  0
   97.4680  103.8220  105.2770 C   0  0  0  0  0  0  0  0  0  0  0  0
   98.4170  105.9800  108.2850 C   0  0  0  0  0  0  0  0  0  0  0  0
   98.4650  106.1260  105.2400 C   0  0  0  0  0  0  0  0  0  0  0  0
   97.6670  106.6420  104.3930 O   0  0  0  0  0  0  0  0  0  0  0  0
   99.6410  106.5340  105.4920 O   0  0  0  0  0  0  0  0  0  0  0  0
   98.3120   98.1410  103.9640 C   0  0  0  0  0  0  0  0  0  0  0  0
   99.2690   98.2140  102.8470 N   0  0  0  0  0  0  0  0  0  0  0  0
   98.7170   98.1890  101.9860 H   0  0  0  0  0  0  0  0  0  0  0  0
  100.1030   99.4290  102.7900 C   0  0  2  0  0  0  0  0  0  0  0  0
  101.0280   99.3390  101.5680 C   0  0  0  0  0  0  0  0  0  0  0  0
  100.9170   99.7450  104.0430 C   0  0  0  0  0  0  0  0  0  0  0  0
  101.3940   98.6310  104.7690 C   0  0  0  0  0  0  0  0  0  0  0  0
  101.1880  101.0590  104.5370 C   0  0  0  0  0  0  0  0  0  0  0  0
  102.1410   98.7870  105.9310 C   0  0  0  0  0  0  0  0  0  0  0  0
  100.7440  102.2550  103.9210 C   0  0  0  0  0  0  0  0  0  0  0  0
  101.9520  101.1980  105.7270 C   0  0  0  0  0  0  0  0  0  0  0  0
  102.4210  100.0620  106.4030 C   0  0  0  0  0  0  0  0  0  0  0  0
  101.0400  103.5170  104.4420 C   0  0  0  0  0  0  0  0  0  0  0  0
  102.2440  102.4740  106.2400 C   0  0  0  0  0  0  0  0  0  0  0  0
  101.7910  103.6270  105.6030 C   0  0  0  0  0  0  0  0  0  0  0  0
  1 11  1  6  0  0  0
  2  1  1  0  0  0  0
  3 21  1  6  0  0  0
  3  2  1  0  0  0  0
  4  3  1  0  0  0  0
  5  4  1  0  0  0  0
  5 10  1  0  0  0  0
  6  5  2  0  0  0  0
  7  6  1  0  0  0  0
  7  8  2  0  0  0  0
  8  9  1  0  0  0  0
  9 10  2  0  0  0  0
 10  1  1  0  0  0  0
 11 15  1  0  0  0  0
 12 13  1  0  0  0  0
 12 17  1  0  0  0  0
 14 12  2  0  0  0  0
 15 13  2  0  0  0  0
 16 11  2  0  0  0  0
 16 14  1  0  0  0  0
 18 20  1  0  0  0  0
 18 14  1  0  0  0  0
 19 18  2  0  0  0  0
 22 21  1  0  0  0  0
 23 22  1  0  0  0  0
 24 25  1  6  0  0  0
 24 22  1  0  0  0  0
 24 26  1  0  0  0  0
 26 28  2  0  0  0  0
 26 27  1  0  0  0  0
 27 29  2  0  0  0  0
 28 31  1  0  0  0  0
 29 32  1  0  0  0  0
 30 33  2  0  0  0  0
 30 28  1  0  0  0  0
 31 34  1  0  0  0  0
 31 32  2  0  0  0  0
 33 35  1  0  0  0  0
 35 34  2  0  0  0  0
M  END
>  <minimizedAffinity>
-10.2542086

>  <CNNscore>
0.490409285

>  <CNNaffinity>
6.84609461

$$$$

 OpenBabel08282606503D

 35 39  0  0  1  0  0  0  0  0999 V2000
   98.8210  101.5100  103.4870 C   0  0  2  0  0  0  0  0  0  0  0  0
   97.7910  102.5940  103.8260 C   0  0  0  0  0  0  0  0  0  0  0  0
   96.6060  102.4700  102.8800 C   0  0  1  0  0  0  0  0  0  0  0  0
   95.9360  101.2040  102.9990 O   0  0  0  0  0  0  0  0  0  0  0  0
   96.7460  100.1080  103.1350 C   0  0  0  0  0  0  0  0  0  0  0  0
   96.0950   98.8760  103.0290 C   0  0  0  0  0  0  0  0  0  0  0  0
   96.8110   97.6880  103.1500 C   0  0  0  0  0  0  0  0  0  0  0  0
   98.1830   97.7290  103.3780 C   0  0  0  0  0  0  0  0  0  0  0  0
   98.8350   98.9590  103.4900 C   0  0  0  0  0  0  0  0  0  0  0  0
   98.1230  100.1670  103.3890 C   0  0  0  0  0  0  0  0  0  0  0  0
  100.0010  101.5770  104.4460 C   0  0  0  0  0  0  0  0  0  0  0  0
  102.1470  101.7260  106.2940 C   0  0  0  0  0  0  0  0  0  0  0  0
  101.6540  102.8790  105.6590 C   0  0  0  0  0  0  0  0  0  0  0  0
  101.5780  100.4720  105.9870 C   0  0  0  0  0  0  0  0  0  0  0  0
  100.5910  102.8080  104.7540 C   0  0  0  0  0  0  0  0  0  0  0  0
  100.5240  100.4240  105.0520 C   0  0  0  0  0  0  0  0  0  0  0  0
  103.2730  101.8670  107.2820 C   0  0  0  0  0  0  0  0  0  0  0  0
  102.0200   99.1650  106.6270 C   0  0  0  0  0  0  0  0  0  0  0  0
  102.3970   98.2460  105.8310 O   0  0  0  0  0  0  0  0  0  0  0  0
  101.9930   99.0800  107.8940 O   0  0  0  0  0  0  0  0  0  0  0  0
   95.5580  103.5920  103.0850 C   0  0  0  0  0  0  0  0  0  0  0  0
   95.9180  104.7130  103.9710 N   0  0  0  0  0  0  0  0  0  0  0  0
   95.0870  105.3050  104.0460 H   0  0  0  0  0  0  0  0  0  0  0  0
   96.3160  104.3500  105.3430 C   0  0  2  0  0  0  0  0  0  0  0  0
   95.0810  104.4230  106.2530 C   0  0  0  0  0  0  0  0  0  0  0  0
   97.4620  105.1590  105.9480 C   0  0  0  0  0  0  0  0  0  0  0  0
   98.0370  106.1390  105.1100 C   0  0  0  0  0  0  0  0  0  0  0  0
   98.0020  104.9660  107.2580 C   0  0  0  0  0  0  0  0  0  0  0  0
   99.0920  106.9350  105.5410 C   0  0  0  0  0  0  0  0  0  0  0  0
   97.5360  104.0010  108.1830 C   0  0  0  0  0  0  0  0  0  0  0  0
   99.0810  105.7890  107.6810 C   0  0  0  0  0  0  0  0  0  0  0  0
   99.6060  106.7630  106.8190 C   0  0  0  0  0  0  0  0  0  0  0  0
   98.0950  103.8560  109.4560 C   0  0  0  0  0  0  0  0  0  0  0  0
   99.6330  105.6340  108.9630 C   0  0  0  0  0  0  0  0  0  0  0  0
   99.1450  104.6730  109.8470 C   0  0  0  0  0  0  0  0  0  0  0  0
  1  2  1  0  0  0  0
  1 11  1  1  0  0  0
  3  4  1  0  0  0  0
  3 21  1  1  0  0  0
  3  2  1  0  0  0  0
  4  5  1  0  0  0  0
  5 10  1  0  0  0  0
  6  5  2  0  0  0  0
  6  7  1  0  0  0  0
  7  8  2  0  0  0  0
  8  9  1  0  0  0  0
 10  1  1  0  0  0  0
 10  9  2  0  0  0  0
 11 15  2  0  0  0  0
 11 16  1  0  0  0  0
 12 17  1  0  0  0  0
 13 12  2  0  0  0  0
 14 12  1  0  0  0  0
 14 18  1  0  0  0  0
 15 13  1  0  0  0  0
 16 14  2  0  0  0  0
 18 20  1  0  0  0  0
 19 18  2  0  0  0  0
 21 22  1  0  0  0  0
 22 23  1  0  0  0  0
 22 24  1  0  0  0  0
 24 26  1  0  0  0  0
 24 25  1  1  0  0  0
 26 28  1  0  0  0  0
 27 29  1  0  0  0  0
 27 26  2  0  0  0  0
 28 31  2  0  0  0  0
 28 30  1  0  0  0  0
 29 32  2  0  0  0  0
 30 33  2  0  0  0  0
 31 34  1  0  0  0  0
 32 31  1  0  0  0  0
 33 35  1  0  0  0  0
 34 35  2  0  0  0  0
M  END
>  <minimizedAffinity>
-9.84189034

>  <CNNscore>
0.48952055

>  <CNNaffinity>
6.72580338

$$$$

 OpenBabel08282606503D

 35 39  0  0  1  0  0  0  0  0999 V2000
   98.8050  102.2830  107.7570 C   0  0  2  0  0  0  0  0  0  0  0  0
   98.0350  101.8570  106.5020 C   0  0  0  0  0  0  0  0  0  0  0  0
   96.6340  102.4490  106.5510 C   0  0  1  0  0  0  0  0  0  0  0  0
   96.6430  103.8860  106.5700 O   0  0  0  0  0  0  0  0  0  0  0  0
   97.5970  104.4690  107.3610 C   0  0  0  0  0  0  0  0  0  0  0  0
   97.4530  105.8470  107.5400 C   0  0  0  0  0  0  0  0  0  0  0  0
   98.3620  106.5540  108.3250 C   0  0  0  0  0  0  0  0  0  0  0  0
   99.4170  105.8820  108.9330 C   0  0  0  0  0  0  0  0  0  0  0  0
   99.5660  104.5060  108.7500 C   0  0  0  0  0  0  0  0  0  0  0  0
   98.6690  103.7820  107.9470 C   0  0  0  0  0  0  0  0  0  0  0  0
  100.2280  101.7450  107.7190 C   0  0  0  0  0  0  0  0  0  0  0  0
  102.8750  100.7270  107.7310 C   0  0  0  0  0  0  0  0  0  0  0  0
  102.6000  102.0400  108.1490 C   0  0  0  0  0  0  0  0  0  0  0  0
  101.8180   99.9120  107.2770 C   0  0  0  0  0  0  0  0  0  0  0  0
  101.2950  102.5410  108.1510 C   0  0  0  0  0  0  0  0  0  0  0  0
  100.5140  100.4480  107.2660 C   0  0  0  0  0  0  0  0  0  0  0  0
  104.2950  100.2330  107.7800 C   0  0  0  0  0  0  0  0  0  0  0  0
  101.9980   98.4720  106.8220 C   0  0  0  0  0  0  0  0  0  0  0  0
  102.0990   97.5980  107.7420 O   0  0  0  0  0  0  0  0  0  0  0  0
  102.0260   98.2370  105.5740 O   0  0  0  0  0  0  0  0  0  0  0  0
   95.7490  101.9870  105.3660 C   0  0  0  0  0  0  0  0  0  0  0  0
   96.3460  101.0670  104.3820 N   0  0  0  0  0  0  0  0  0  0  0  0
   95.5690  100.5940  103.9150 H   0  0  0  0  0  0  0  0  0  0  0  0
   97.1670  101.6930  103.3290 C   0  0  2  0  0  0  0  0  0  0  0  0
   96.5670  101.3420  101.9590 C   0  0  0  0  0  0  0  0  0  0  0  0
   98.6570  101.3600  103.3510 C   0  0  0  0  0  0  0  0  0  0  0  0
   99.0150  100.0900  102.8480 C   0  0  0  0  0  0  0  0  0  0  0  0
   99.6820  102.2120  103.8690 C   0  0  0  0  0  0  0  0  0  0  0  0
  100.3380   99.6650  102.8220 C   0  0  0  0  0  0  0  0  0  0  0  0
   99.4530  103.4950  104.4250 C   0  0  0  0  0  0  0  0  0  0  0  0
  101.0290  101.7610  103.8330 C   0  0  0  0  0  0  0  0  0  0  0  0
  101.3380  100.4990  103.3070 C   0  0  0  0  0  0  0  0  0  0  0  0
  100.4920  104.2920  104.9140 C   0  0  0  0  0  0  0  0  0  0  0  0
  102.0640  102.5730  104.3270 C   0  0  0  0  0  0  0  0  0  0  0  0
  101.7990  103.8310  104.8650 C   0  0  0  0  0  0  0  0  0  0  0  0
  1 11  1  6  0  0  0
  1 10  1  0  0  0  0
  2  3  1  0  0  0  0
  2  1  1  0  0  0  0
  3 21  1  6  0  0  0
  3  4  1  0  0  0  0
  4  5  1  0  0  0  0
  5  6  2  0  0  0  0
  5 10  1  0  0  0  0
  6  7  1  0  0  0  0
  7  8  2  0  0  0  0
  9  8  1  0  0  0  0
 10  9  2  0  0  0  0
 11 15  1  0  0  0  0
 12 17  1  0  0  0  0
 12 13  1  0  0  0  0
 13 15  2  0  0  0  0
 14 12  2  0  0  0  0
 16 14  1  0  0  0  0
 16 11  2  0  0  0  0
 18 14  1  0  0  0  0
 18 19  1  0  0  0  0
 20 18  2  0  0  0  0
 22 21  1  0  0  0  0
 23 22  1  0  0  0  0
 24 25  1  6  0  0  0
 24 26  1  0  0  0  0
 24 22  1  0  0  0  0
 26 28  1  0  0  0  0
 27 26  2  0  0  0  0
 28 30  1  0  0  0  0
 29 27  1  0  0  0  0
 29 32  2  0  0  0  0
 30 33  2  0  0  0  0
 31 28  2  0  0  0  0
 31 34  1  0  0  0  0
 32 31  1  0  0  0  0
 34 35  2  0  0  0  0
 35 33  1  0  0  0  0
M  END
>  <minimizedAffinity>
-9.98379898

>  <CNNscore>
0.47733143

>  <CNNaffinity>
6.85437155

$$$$

 OpenBabel08282606503D

 35 39  0  0  1  0  0  0  0  0999 V2000
  101.1860  101.6710  105.5330 C   0  0  2  0  0  0  0  0  0  0  0  0
  100.1730  100.9190  104.6610 C   0  0  0  0  0  0  0  0  0  0  0  0
  100.8800   99.7770  103.9470 C   0  0  1  0  0  0  0  0  0  0  0  0
  101.4400   98.8180  104.8600 O   0  0  0  0  0  0  0  0  0  0  0  0
  102.0510   99.3350  105.9710 C   0  0  0  0  0  0  0  0  0  0  0  0
  102.7750   98.4110  106.7290 C   0  0  0  0  0  0  0  0  0  0  0  0
  103.4420   98.8160  107.8840 C   0  0  0  0  0  0  0  0  0  0  0  0
  103.3840  100.1470  108.2830 C   0  0  0  0  0  0  0  0  0  0  0  0
  102.6560  101.0710  107.5300 C   0  0  0  0  0  0  0  0  0  0  0  0
  101.9630  100.6750  106.3730 C   0  0  0  0  0  0  0  0  0  0  0  0
  100.5020  102.7940  106.2990 C   0  0  0  0  0  0  0  0  0  0  0  0
   99.3030  104.9130  107.7540 C   0  0  0  0  0  0  0  0  0  0  0  0
   99.6690  103.7120  108.3870 C   0  0  0  0  0  0  0  0  0  0  0  0
   99.5160  105.0540  106.3670 C   0  0  0  0  0  0  0  0  0  0  0  0
  100.2670  102.6700  107.6730 C   0  0  0  0  0  0  0  0  0  0  0  0
  100.0980  103.9790  105.6640 C   0  0  0  0  0  0  0  0  0  0  0  0
   98.6910  106.0110  108.5800 C   0  0  0  0  0  0  0  0  0  0  0  0
   99.1780  106.3140  105.5850 C   0  0  0  0  0  0  0  0  0  0  0  0
  100.0440  107.2460  105.6170 O   0  0  0  0  0  0  0  0  0  0  0  0
   98.0760  106.3500  104.9550 O   0  0  0  0  0  0  0  0  0  0  0  0
   99.9520   99.0220  102.9630 C   0  0  0  0  0  0  0  0  0  0  0  0
   98.7460   99.7210  102.4850 N   0  0  0  0  0  0  0  0  0  0  0  0
   98.3930   99.1850  101.6880 H   0  0  0  0  0  0  0  0  0  0  0  0
   97.6390   99.8350  103.4520 C   0  0  2  0  0  0  0  0  0  0  0  0
   96.6830   98.6500  103.2540 C   0  0  0  0  0  0  0  0  0  0  0  0
   96.8600  101.1490  103.4300 C   0  0  0  0  0  0  0  0  0  0  0  0
   96.4530  101.6060  102.1580 C   0  0  0  0  0  0  0  0  0  0  0  0
   96.5570  101.9430  104.5800 C   0  0  0  0  0  0  0  0  0  0  0  0
   95.7440  102.7910  102.0040 C   0  0  0  0  0  0  0  0  0  0  0  0
   96.9300  101.6120  105.9050 C   0  0  0  0  0  0  0  0  0  0  0  0
   95.8310  103.1530  104.4030 C   0  0  0  0  0  0  0  0  0  0  0  0
   95.4320  103.5560  103.1210 C   0  0  0  0  0  0  0  0  0  0  0  0
   96.6050  102.4220  106.9970 C   0  0  0  0  0  0  0  0  0  0  0  0
   95.5090  103.9560  105.5090 C   0  0  0  0  0  0  0  0  0  0  0  0
   95.8930  103.5950  106.7990 C   0  0  0  0  0  0  0  0  0  0  0  0
  1 11  1  1  0  0  0
  1 10  1  0  0  0  0
  2  1  1  0  0  0  0
  3 21  1  6  0  0  0
  3  2  1  0  0  0  0
  3  4  1  0  0  0  0
  4  5  1  0  0  0  0
  5 10  2  0  0  0  0
  5  6  1  0  0  0  0
  6  7  2  0  0  0  0
  7  8  1  0  0  0  0
  9  8  2  0  0  0  0
 10  9  1  0  0  0  0
 11 15  1  0  0  0  0
 12 13  1  0  0  0  0
 12 17  1  0  0  0  0
 14 12  2  0  0  0  0
 15 13  2  0  0  0  0
 16 11  2  0  0  0  0
 16 14  1  0  0  0  0
 18 19  1  0  0  0  0
 18 14  1  0  0  0  0
 20 18  2  0  0  0  0
 22 21  1  0  0  0  0
 22 24  1  0  0  0  0
 23 22  1  0  0  0  0
 24 25  1  6  0  0  0
 26 24  1  0  0  0  0
 26 28  1  0  0  0  0
 27 26  2  0  0  0  0
 28 30  1  0  0  0  0
 29 27  1  0  0  0  0
 29 32  2  0  0  0  0
 30 33  2  0  0  0  0
 31 28  2  0  0  0  0
 31 34  1  0  0  0  0
 32 31  1  0  0  0  0
 34 35  2  0  0  0  0
 35 33  1  0  0  0  0
M  END
>  <minimizedAffinity>
-10.8950834

>  <CNNscore>
0.367937148

>  <CNNaffinity>
6.71693659

$$$$
