
 OpenBabel08282607163D

 26 28  0  0  1  0  0  0  0  0999 V2000
   96.9850  101.5000  104.3960 C   0  0  0  0  0  0  0  0  0  0  0  0
   97.6500  102.2570  105.4940 C   0  0  0  0  0  0  0  0  0  0  0  0
   97.2570  103.4360  106.0170 C   0  0  0  0  0  0  0  0  0  0  0  0
   98.1910  103.7770  107.1040 C   0  0  1  0  0  0  0  0  0  0  0  0
   98.1880  104.8770  107.9490 C   0  0  0  0  0  0  0  0  0  0  0  0
   99.1740  104.9590  108.9250 C   0  0  0  0  0  0  0  0  0  0  0  0
   99.2060  106.0130  109.7540 F   0  0  0  0  0  0  0  0  0  0  0  0
  100.1420  103.9610  109.0700 C   0  0  0  0  0  0  0  0  0  0  0  0
  100.1430  102.8530  108.2160 C   0  0  0  0  0  0  0  0  0  0  0  0
   99.1720  102.7750  107.2270 C   0  0  0  0  0  0  0  0  0  0  0  0
   98.8700  101.7920  106.1720 C   0  0  0  0  0  0  0  0  0  0  0  0
   99.5550  100.6900  105.8120 C   0  0  0  0  0  0  0  0  0  0  0  0
   96.1280  104.3270  105.6070 C   0  0  0  0  0  0  0  0  0  0  0  0
   96.4960  105.2580  104.4480 C   0  0  0  0  0  0  0  0  0  0  0  0
   95.8300  105.0920  103.3840 O   0  0  0  0  0  0  0  0  0  0  0  0
   97.4600  106.0450  104.6760 O   0  0  0  0  0  0  0  0  0  0  0  0
  100.8150  100.2140  106.3810 C   0  0  0  0  0  0  0  0  0  0  0  0
  101.3930  100.8730  107.4700 C   0  0  0  0  0  0  0  0  0  0  0  0
  101.4560   99.0980  105.8300 C   0  0  0  0  0  0  0  0  0  0  0  0
  102.5810  100.4000  108.0320 C   0  0  0  0  0  0  0  0  0  0  0  0
  102.6500   98.6300  106.3870 C   0  0  0  0  0  0  0  0  0  0  0  0
  103.2110   99.2690  107.5010 C   0  0  0  0  0  0  0  0  0  0  0  0
  104.7290   98.7060  108.2990 S   0  0  1  0  0  0  0  0  0  0  0  0
  103.9940   97.8410  109.7150 C   0  0  0  0  0  0  0  0  0  0  0  0
  104.8620   97.3740  107.4010 O   0  0  0  0  0  0  0  0  0  0  0  0
  105.0600   97.6130  106.4640 H   0  0  0  0  0  0  0  0  0  0  0  0
  1  2  1  0  0  0  0
  2  3  2  0  0  0  0
  2 11  1  0  0  0  0
  3  4  1  0  0  0  0
  4 10  1  0  0  0  0
  4  5  1  1  0  0  0
  5  6  2  0  0  0  0
  6  8  1  0  0  0  0
  6  7  1  0  0  0  0
  9  8  2  0  0  0  0
 10  9  1  0  0  0  0
 11 10  2  0  0  0  0
 12 11  1  0  0  0  0
 12 17  1  0  0  0  0
 13  3  1  0  0  0  0
 14 16  1  0  0  0  0
 14 13  1  0  0  0  0
 15 14  2  0  0  0  0
 17 18  1  0  0  0  0
 18 20  2  0  0  0  0
 19 17  2  0  0  0  0
 19 21  1  0  0  0  0
 21 22  2  0  0  0  0
 22 20  1  0  0  0  0
 22 23  1  0  0  0  0
 23 24  1  1  0  0  0
 25 23  1  0  0  0  0
 26 25  1  0  0  0  0
M  END
>  <minimizedAffinity>
-8.98112774

>  <CNNscore>
0.917413056

>  <CNNaffinity>
7.39491415

$$$$

 OpenBabel08282607163D

 26 28  0  0  1  0  0  0  0  0999 V2000
   97.8910  101.8750  103.4540 C   0  0  0  0  0  0  0  0  0  0  0  0
   98.3070  102.5310  104.7260 C   0  0  0  0  0  0  0  0  0  0  0  0
   97.7900  103.6550  105.2630 C   0  0  0  0  0  0  0  0  0  0  0  0
   98.4820  103.9000  106.5400 C   0  0  1  0  0  0  0  0  0  0  0  0
   98.2860  104.9170  107.4620 C   0  0  0  0  0  0  0  0  0  0  0  0
   99.0570  104.9130  108.6190 C   0  0  0  0  0  0  0  0  0  0  0  0
   98.8990  105.8870  109.5280 F   0  0  0  0  0  0  0  0  0  0  0  0
  100.0000  103.9120  108.8650 C   0  0  0  0  0  0  0  0  0  0  0  0
  100.1970  102.8870  107.9330 C   0  0  0  0  0  0  0  0  0  0  0  0
   99.4440  102.8950  106.7660 C   0  0  0  0  0  0  0  0  0  0  0  0
   99.3800  102.0120  105.5890 C   0  0  0  0  0  0  0  0  0  0  0  0
  100.1480  100.9520  105.2770 C   0  0  0  0  0  0  0  0  0  0  0  0
   96.7440  104.5740  104.7170 C   0  0  0  0  0  0  0  0  0  0  0  0
   95.3210  104.0580  104.9470 C   0  0  0  0  0  0  0  0  0  0  0  0
   94.8830  104.1770  106.1290 O   0  0  0  0  0  0  0  0  0  0  0  0
   94.7730  103.5250  103.9380 O   0  0  0  0  0  0  0  0  0  0  0  0
  101.2820  100.4330  106.0400 C   0  0  0  0  0  0  0  0  0  0  0  0
  101.4860   99.0540  106.1550 C   0  0  0  0  0  0  0  0  0  0  0  0
  102.1660  101.3160  106.6700 C   0  0  0  0  0  0  0  0  0  0  0  0
  102.5860   98.5590  106.8590 C   0  0  0  0  0  0  0  0  0  0  0  0
  103.2620  100.8210  107.3830 C   0  0  0  0  0  0  0  0  0  0  0  0
  103.4880   99.4400  107.4680 C   0  0  0  0  0  0  0  0  0  0  0  0
  104.8970   98.7230  108.3380 S   0  0  1  0  0  0  0  0  0  0  0  0
  104.0830   98.3350  109.9130 C   0  0  0  0  0  0  0  0  0  0  0  0
  104.6890   97.2460  107.7280 O   0  0  0  0  0  0  0  0  0  0  0  0
  104.8760   97.2470  106.7580 H   0  0  0  0  0  0  0  0  0  0  0  0
  1  2  1  0  0  0  0
  2  3  2  0  0  0  0
  2 11  1  0  0  0  0
  3  4  1  0  0  0  0
  4 10  1  0  0  0  0
  4  5  1  1  0  0  0
  5  6  2  0  0  0  0
  6  8  1  0  0  0  0
  6  7  1  0  0  0  0
  9  8  2  0  0  0  0
 10  9  1  0  0  0  0
 11 10  2  0  0  0  0
 12 11  1  0  0  0  0
 12 17  1  0  0  0  0
 13 14  1  0  0  0  0
 13  3  1  0  0  0  0
 14 15  1  0  0  0  0
 16 14  2  0  0  0  0
 17 18  2  0  0  0  0
 17 19  1  0  0  0  0
 18 20  1  0  0  0  0
 19 21  2  0  0  0  0
 20 22  2  0  0  0  0
 21 22  1  0  0  0  0
 22 23  1  0  0  0  0
 23 24  1  1  0  0  0
 25 23  1  0  0  0  0
 26 25  1  0  0  0  0
M  END
>  <minimizedAffinity>
-8.77654839

>  <CNNscore>
0.881328464

>  <CNNaffinity>
7.37398672

$$$$

 OpenBabel08282607163D

 26 28  0  0  1  0  0  0  0  0999 V2000
   97.9060  104.1980  107.1490 C   0  0  0  0  0  0  0  0  0  0  0  0
   98.0340  102.9130  106.4050 C   0  0  0  0  0  0  0  0  0  0  0  0
   97.1340  102.3750  105.5570 C   0  0  0  0  0  0  0  0  0  0  0  0
   97.7070  101.1250  105.0290 C   0  0  1  0  0  0  0  0  0  0  0  0
   97.1700  100.2340  104.1130 C   0  0  0  0  0  0  0  0  0  0  0  0
   97.9290   99.1270  103.7500 C   0  0  0  0  0  0  0  0  0  0  0  0
   97.4370   98.2400  102.8730 F   0  0  0  0  0  0  0  0  0  0  0  0
   99.2050   98.9120  104.2780 C   0  0  0  0  0  0  0  0  0  0  0  0
   99.7440   99.8120  105.2030 C   0  0  0  0  0  0  0  0  0  0  0  0
   98.9840  100.9100  105.5840 C   0  0  0  0  0  0  0  0  0  0  0  0
   99.2100  102.0340  106.5080 C   0  0  0  0  0  0  0  0  0  0  0  0
  100.2410  102.2540  107.3470 C   0  0  0  0  0  0  0  0  0  0  0  0
   95.7660  102.8580  105.1950 C   0  0  0  0  0  0  0  0  0  0  0  0
   95.6610  104.3850  105.1690 C   0  0  0  0  0  0  0  0  0  0  0  0
   95.0140  104.9040  106.1250 O   0  0  0  0  0  0  0  0  0  0  0  0
   96.1900  104.9420  104.1620 O   0  0  0  0  0  0  0  0  0  0  0  0
  101.3970  101.3850  107.5650 C   0  0  0  0  0  0  0  0  0  0  0  0
  101.2390  100.1410  108.1840 C   0  0  0  0  0  0  0  0  0  0  0  0
  102.6710  101.8000  107.1620 C   0  0  0  0  0  0  0  0  0  0  0  0
  102.3390   99.2990  108.3650 C   0  0  0  0  0  0  0  0  0  0  0  0
  103.7730  100.9610  107.3510 C   0  0  0  0  0  0  0  0  0  0  0  0
  103.6110   99.6990  107.9390 C   0  0  0  0  0  0  0  0  0  0  0  0
  104.9750   98.5430  108.1860 S   0  0  1  0  0  0  0  0  0  0  0  0
  104.2880   97.5940  109.5720 C   0  0  0  0  0  0  0  0  0  0  0  0
  104.4690   97.5020  107.0650 O   0  0  0  0  0  0  0  0  0  0  0  0
  104.5450   97.9040  106.1660 H   0  0  0  0  0  0  0  0  0  0  0  0
  2 11  1  0  0  0  0
  2  1  1  0  0  0  0
  3  2  2  0  0  0  0
  4  5  1  6  0  0  0
  4  3  1  0  0  0  0
  4 10  1  0  0  0  0
  6  5  2  0  0  0  0
  6  8  1  0  0  0  0
  7  6  1  0  0  0  0
  8  9  2  0  0  0  0
  9 10  1  0  0  0  0
 10 11  2  0  0  0  0
 11 12  1  0  0  0  0
 12 17  1  0  0  0  0
 13  3  1  0  0  0  0
 14 13  1  0  0  0  0
 14 15  1  0  0  0  0
 16 14  2  0  0  0  0
 17 18  1  0  0  0  0
 18 20  2  0  0  0  0
 19 21  1  0  0  0  0
 19 17  2  0  0  0  0
 21 22  2  0  0  0  0
 22 23  1  0  0  0  0
 22 20  1  0  0  0  0
 23 24  1  1  0  0  0
 25 23  1  0  0  0  0
 26 25  1  0  0  0  0
M  END
>  <minimizedAffinity>
-8.73690224

>  <CNNscore>
0.723626852

>  <CNNaffinity>
7.00443983

$$$$

 OpenBabel08282607163D

 26 28  0  0  0  0  0  0  0  0999 V2000
   98.5830  105.4950  108.2470 C   0  0  0  0  0  0  0  0  0  0  0  0
   99.5200  105.2840  107.1060 C   0  0  0  0  0  0  0  0  0  0  0  0
   99.7360  106.1210  106.0710 C   0  0  0  0  0  0  0  0  0  0  0  0
  100.7720  105.5170  105.2160 C   0  0  0  0  0  0  0  0  0  0  0  0
  101.3430  106.0080  104.0520 C   0  0  0  0  0  0  0  0  0  0  0  0
  102.3350  105.2530  103.4370 C   0  0  0  0  0  0  0  0  0  0  0  0
  102.9030  105.6940  102.3040 F   0  0  0  0  0  0  0  0  0  0  0  0
  102.7640  104.0350  103.9720 C   0  0  0  0  0  0  0  0  0  0  0  0
  102.1850  103.5410  105.1460 C   0  0  0  0  0  0  0  0  0  0  0  0
  101.1810  104.2820  105.7560 C   0  0  0  0  0  0  0  0  0  0  0  0
  100.3610  104.0850  106.9630 C   0  0  0  0  0  0  0  0  0  0  0  0
  100.3040  103.0250  107.7920 C   0  0  0  0  0  0  0  0  0  0  0  0
   99.0640  107.4160  105.7420 C   0  0  0  0  0  0  0  0  0  0  0  0
   99.8070  108.6310  106.3040 C   0  0  0  0  0  0  0  0  0  0  0  0
   99.1500  109.7130  106.3160 O   0  0  0  0  0  0  0  0  0  0  0  0
  101.0090  108.4170  106.6400 O   0  0  0  0  0  0  0  0  0  0  0  0
  101.0430  101.7690  107.6640 C   0  0  0  0  0  0  0  0  0  0  0  0
  102.2630  101.5970  108.3250 C   0  0  0  0  0  0  0  0  0  0  0  0
  100.5360  100.7350  106.8700 C   0  0  0  0  0  0  0  0  0  0  0  0
  102.9540  100.3870  108.2270 C   0  0  0  0  0  0  0  0  0  0  0  0
  101.2320   99.5270  106.7650 C   0  0  0  0  0  0  0  0  0  0  0  0
  102.4370   99.3400  107.4560 C   0  0  0  0  0  0  0  0  0  0  0  0
  103.3760   97.8000  107.4010 S   0  0  1  0  0  0  0  0  0  0  0  0
  104.9420   98.4050  108.0920 C   0  0  0  0  0  0  0  0  0  0  0  0
  102.8230   97.2590  108.8140 O   0  0  0  0  0  0  0  0  0  0  0  0
  101.8600   97.0520  108.7480 H   0  0  0  0  0  0  0  0  0  0  0  0
  2  1  1  0  0  0  0
  3  2  2  0  0  0  0
  4 10  1  0  0  0  0
  4  3  1  0  0  0  0
  5  4  2  0  0  0  0
  6  8  2  0  0  0  0
  6  5  1  0  0  0  0
  7  6  1  0  0  0  0
  8  9  1  0  0  0  0
  9 10  1  0  0  0  0
 10 11  2  0  0  0  0
 11  2  1  0  0  0  0
 11 12  1  0  0  0  0
 13  3  1  0  0  0  0
 13 14  1  0  0  0  0
 14 15  2  0  0  0  0
 14 16  1  0  0  0  0
 17 12  1  0  0  0  0
 17 18  1  0  0  0  0
 19 17  2  0  0  0  0
 20 18  2  0  0  0  0
 21 19  1  0  0  0  0
 21 22  2  0  0  0  0
 22 20  1  0  0  0  0
 23 22  1  0  0  0  0
 23 24  1  1  0  0  0
 23 25  1  0  0  0  0
 26 25  1  0  0  0  0
M  END
>  <minimizedAffinity>
-7.97604752

>  <CNNscore>
0.659015477

>  <CNNaffinity>
6.9345932

$$$$

 OpenBabel08282607163D

 26 28  0  0  1  0  0  0  0  0999 V2000
   95.6820  100.8960  104.3080 C   0  0  0  0  0  0  0  0  0  0  0  0
   96.6050  102.0190  104.6400 C   0  0  0  0  0  0  0  0  0  0  0  0
   96.3860  103.3340  104.4320 C   0  0  0  0  0  0  0  0  0  0  0  0
   97.5510  104.0690  104.9540 C   0  0  1  0  0  0  0  0  0  0  0  0
   97.7810  105.4360  104.9880 C   0  0  0  0  0  0  0  0  0  0  0  0
   98.9620  105.8900  105.5660 C   0  0  0  0  0  0  0  0  0  0  0  0
   99.2200  107.2060  105.6080 F   0  0  0  0  0  0  0  0  0  0  0  0
   99.8950  105.0050  106.1110 C   0  0  0  0  0  0  0  0  0  0  0  0
   99.6610  103.6260  106.0750 C   0  0  0  0  0  0  0  0  0  0  0  0
   98.4930  103.1650  105.4830 C   0  0  0  0  0  0  0  0  0  0  0  0
   97.9240  101.8240  105.2610 C   0  0  0  0  0  0  0  0  0  0  0  0
   98.4660  100.6170  105.5090 C   0  0  0  0  0  0  0  0  0  0  0  0
   95.2330  104.0100  103.7620 C   0  0  0  0  0  0  0  0  0  0  0  0
   94.7830  103.2940  102.4860 C   0  0  0  0  0  0  0  0  0  0  0  0
   95.6540  103.2150  101.5690 O   0  0  0  0  0  0  0  0  0  0  0  0
   93.5750  102.9140  102.4800 O   0  0  0  0  0  0  0  0  0  0  0  0
   99.8010  100.3450  106.0420 C   0  0  0  0  0  0  0  0  0  0  0  0
  100.1770  100.8450  107.2930 C   0  0  0  0  0  0  0  0  0  0  0  0
  100.7130   99.5900  105.2970 C   0  0  0  0  0  0  0  0  0  0  0  0
  101.4410  100.5600  107.8150 C   0  0  0  0  0  0  0  0  0  0  0  0
  101.9810   99.3120  105.8170 C   0  0  0  0  0  0  0  0  0  0  0  0
  102.3460   99.7820  107.0860 C   0  0  0  0  0  0  0  0  0  0  0  0
  103.9490   99.4370  107.8400 S   0  0  1  0  0  0  0  0  0  0  0  0
  103.3780   98.9300  109.4870 C   0  0  0  0  0  0  0  0  0  0  0  0
  104.0380   97.9310  107.2750 O   0  0  0  0  0  0  0  0  0  0  0  0
  104.1400   97.9400  106.2930 H   0  0  0  0  0  0  0  0  0  0  0  0
  1  2  1  0  0  0  0
  2 11  1  0  0  0  0
  3  2  2  0  0  0  0
  3  4  1  0  0  0  0
  4  5  1  1  0  0  0
  4 10  1  0  0  0  0
  5  6  2  0  0  0  0
  6  7  1  0  0  0  0
  6  8  1  0  0  0  0
  9  8  2  0  0  0  0
 10  9  1  0  0  0  0
 11 10  2  0  0  0  0
 11 12  1  0  0  0  0
 12 17  1  0  0  0  0
 13  3  1  0  0  0  0
 14 13  1  0  0  0  0
 15 14  2  0  0  0  0
 16 14  1  0  0  0  0
 17 18  1  0  0  0  0
 18 20  2  0  0  0  0
 19 21  1  0  0  0  0
 19 17  2  0  0  0  0
 21 22  2  0  0  0  0
 22 20  1  0  0  0  0
 22 23  1  0  0  0  0
 23 24  1  1  0  0  0
 25 23  1  0  0  0  0
 26 25  1  0  0  0  0
M  END
>  <minimizedAffinity>
-7.13545418

>  <CNNscore>
0.646102965

>  <CNNaffinity>
6.64337683

$$$$

 OpenBabel08282607163D

 26 28  0  0  1  0  0  0  0  0999 V2000
   98.5380  105.0300  107.2140 C   0  0  0  0  0  0  0  0  0  0  0  0
   98.7050  103.9180  106.2370 C   0  0  0  0  0  0  0  0  0  0  0  0
   97.9560  103.6840  105.1400 C   0  0  0  0  0  0  0  0  0  0  0  0
   98.5160  102.5040  104.4580 C   0  0  1  0  0  0  0  0  0  0  0  0
   98.1040  101.8940  103.2830 C   0  0  0  0  0  0  0  0  0  0  0  0
   98.8230  100.7960  102.8260 C   0  0  0  0  0  0  0  0  0  0  0  0
   98.4470  100.1770  101.6970 F   0  0  0  0  0  0  0  0  0  0  0  0
   99.9390  100.3150  103.5150 C   0  0  0  0  0  0  0  0  0  0  0  0
  100.3520  100.9320  104.7020 C   0  0  0  0  0  0  0  0  0  0  0  0
   99.6270  102.0180  105.1740 C   0  0  0  0  0  0  0  0  0  0  0  0
   99.7540  102.8920  106.3530 C   0  0  0  0  0  0  0  0  0  0  0  0
  100.6050  102.8020  107.3920 C   0  0  0  0  0  0  0  0  0  0  0  0
   96.7380  104.4020  104.6520 C   0  0  0  0  0  0  0  0  0  0  0  0
   95.4440  103.6330  104.9270 C   0  0  0  0  0  0  0  0  0  0  0  0
   95.3400  103.1370  106.0870 O   0  0  0  0  0  0  0  0  0  0  0  0
   94.6540  103.5400  103.9410 O   0  0  0  0  0  0  0  0  0  0  0  0
  101.6120  101.7660  107.6170 C   0  0  0  0  0  0  0  0  0  0  0  0
  101.2370  100.5110  108.1090 C   0  0  0  0  0  0  0  0  0  0  0  0
  102.9600  102.0290  107.3490 C   0  0  0  0  0  0  0  0  0  0  0  0
  102.1950   99.5120  108.2950 C   0  0  0  0  0  0  0  0  0  0  0  0
  103.9200  101.0310  107.5440 C   0  0  0  0  0  0  0  0  0  0  0  0
  103.5410   99.7620  108.0020 C   0  0  0  0  0  0  0  0  0  0  0  0
  104.7130   98.4110  108.2450 S   0  0  1  0  0  0  0  0  0  0  0  0
  103.8150   97.4910  109.5260 C   0  0  0  0  0  0  0  0  0  0  0  0
  104.1380   97.5200  107.0320 O   0  0  0  0  0  0  0  0  0  0  0  0
  104.3260   97.9580  106.1670 H   0  0  0  0  0  0  0  0  0  0  0  0
  2 11  1  0  0  0  0
  2  1  1  0  0  0  0
  3  2  2  0  0  0  0
  4  5  1  6  0  0  0
  4  3  1  0  0  0  0
  4 10  1  0  0  0  0
  6  5  2  0  0  0  0
  6  8  1  0  0  0  0
  7  6  1  0  0  0  0
  8  9  2  0  0  0  0
  9 10  1  0  0  0  0
 10 11  2  0  0  0  0
 11 12  1  0  0  0  0
 12 17  1  0  0  0  0
 13 14  1  0  0  0  0
 13  3  1  0  0  0  0
 14 15  1  0  0  0  0
 16 14  2  0  0  0  0
 17 18  1  0  0  0  0
 18 20  2  0  0  0  0
 19 21  1  0  0  0  0
 19 17  2  0  0  0  0
 21 22  2  0  0  0  0
 22 23  1  0  0  0  0
 22 20  1  0  0  0  0
 23 24  1  1  0  0  0
 25 23  1  0  0  0  0
 26 25  1  0  0  0  0
M  END
>  <minimizedAffinity>
-7.9536891

>  <CNNscore>
0.621231079

>  <CNNaffinity>
6.74644709

$$$$

 OpenBabel08282607163D

 26 28  0  0  1  0  0  0  0  0999 V2000
   97.5220  104.8870  105.7630 C   0  0  0  0  0  0  0  0  0  0  0  0
   97.5770  103.4640  105.3250 C   0  0  0  0  0  0  0  0  0  0  0  0
   96.6580  102.8070  104.5890 C   0  0  0  0  0  0  0  0  0  0  0  0
   97.1560  101.4390  104.3660 C   0  0  1  0  0  0  0  0  0  0  0  0
   96.5770  100.4000  103.6530 C   0  0  0  0  0  0  0  0  0  0  0  0
   97.2680   99.1960  103.5660 C   0  0  0  0  0  0  0  0  0  0  0  0
   96.7330   98.1680  102.8910 F   0  0  0  0  0  0  0  0  0  0  0  0
   98.5180   99.0270  104.1680 C   0  0  0  0  0  0  0  0  0  0  0  0
   99.1000  100.0760  104.8880 C   0  0  0  0  0  0  0  0  0  0  0  0
   98.4070  101.2740  104.9940 C   0  0  0  0  0  0  0  0  0  0  0  0
   98.6910  102.5600  105.6550 C   0  0  0  0  0  0  0  0  0  0  0  0
   99.7200  102.8980  106.4550 C   0  0  0  0  0  0  0  0  0  0  0  0
   95.3310  103.2790  104.0870 C   0  0  0  0  0  0  0  0  0  0  0  0
   95.4210  103.9710  102.7250 C   0  0  0  0  0  0  0  0  0  0  0  0
   95.4660  103.1990  101.7230 O   0  0  0  0  0  0  0  0  0  0  0  0
   95.4950  105.2350  102.7680 O   0  0  0  0  0  0  0  0  0  0  0  0
  100.8120  102.0310  106.8950 C   0  0  0  0  0  0  0  0  0  0  0  0
  100.5720  100.9970  107.8060 C   0  0  0  0  0  0  0  0  0  0  0  0
  102.1090  102.2380  106.4120 C   0  0  0  0  0  0  0  0  0  0  0  0
  101.6100  100.1510  108.2020 C   0  0  0  0  0  0  0  0  0  0  0  0
  103.1500  101.3960  106.8150 C   0  0  0  0  0  0  0  0  0  0  0  0
  102.9030  100.3380  107.7000 C   0  0  0  0  0  0  0  0  0  0  0  0
  104.1840   99.1860  108.2410 S   0  0  1  0  0  0  0  0  0  0  0  0
  103.4170   98.6250  109.7880 C   0  0  0  0  0  0  0  0  0  0  0  0
  103.6220   97.9500  107.3740 O   0  0  0  0  0  0  0  0  0  0  0  0
  103.7360   98.1290  106.4100 H   0  0  0  0  0  0  0  0  0  0  0  0
  2 11  1  0  0  0  0
  2  1  1  0  0  0  0
  3  2  2  0  0  0  0
  4  5  1  6  0  0  0
  4  3  1  0  0  0  0
  4 10  1  0  0  0  0
  6  5  2  0  0  0  0
  6  8  1  0  0  0  0
  7  6  1  0  0  0  0
  8  9  2  0  0  0  0
  9 10  1  0  0  0  0
 10 11  2  0  0  0  0
 11 12  1  0  0  0  0
 12 17  1  0  0  0  0
 13  3  1  0  0  0  0
 14 16  1  0  0  0  0
 14 13  1  0  0  0  0
 15 14  2  0  0  0  0
 17 18  1  0  0  0  0
 18 20  2  0  0  0  0
 19 21  1  0  0  0  0
 19 17  2  0  0  0  0
 21 22  2  0  0  0  0
 22 20  1  0  0  0  0
 22 23  1  0  0  0  0
 23 24  1  1  0  0  0
 25 23  1  0  0  0  0
 26 25  1  0  0  0  0
M  END
>  <minimizedAffinity>
-8.02407551

>  <CNNscore>
0.614678264

>  <CNNaffinity>
6.58235931

$$$$

 OpenBabel08282607163D

 26 28  0  0  1  0  0  0  0  0999 V2000
   97.4110  103.0200  107.8720 C   0  0  0  0  0  0  0  0  0  0  0  0
   98.5650  103.3380  106.9830 C   0  0  0  0  0  0  0  0  0  0  0  0
   98.6480  104.3520  106.0980 C   0  0  0  0  0  0  0  0  0  0  0  0
   99.9840  104.2970  105.4800 C   0  0  1  0  0  0  0  0  0  0  0  0
  100.5450  105.1380  104.5300 C   0  0  0  0  0  0  0  0  0  0  0  0
  101.8510  104.8890  104.1210 C   0  0  0  0  0  0  0  0  0  0  0  0
  102.4220  105.6780  103.1990 F   0  0  0  0  0  0  0  0  0  0  0  0
  102.5930  103.8310  104.6520 C   0  0  0  0  0  0  0  0  0  0  0  0
  102.0240  102.9830  105.6090 C   0  0  0  0  0  0  0  0  0  0  0  0
  100.7150  103.2150  106.0080 C   0  0  0  0  0  0  0  0  0  0  0  0
   99.8080  102.5510  106.9600 C   0  0  0  0  0  0  0  0  0  0  0  0
   99.9940  101.4200  107.6680 C   0  0  0  0  0  0  0  0  0  0  0  0
   97.6160  105.3620  105.7130 C   0  0  0  0  0  0  0  0  0  0  0  0
   96.5960  105.6250  106.8240 C   0  0  0  0  0  0  0  0  0  0  0  0
   95.4100  105.2610  106.5730 O   0  0  0  0  0  0  0  0  0  0  0  0
   97.0530  106.2250  107.8410 O   0  0  0  0  0  0  0  0  0  0  0  0
  101.1640  100.5430  107.6310 C   0  0  0  0  0  0  0  0  0  0  0  0
  102.1870  100.6900  108.5720 C   0  0  0  0  0  0  0  0  0  0  0  0
  101.2680   99.5560  106.6450 C   0  0  0  0  0  0  0  0  0  0  0  0
  103.2900   99.8320  108.5550 C   0  0  0  0  0  0  0  0  0  0  0  0
  102.3760   98.7030  106.6220 C   0  0  0  0  0  0  0  0  0  0  0  0
  103.3850   98.8260  107.5870 C   0  0  0  0  0  0  0  0  0  0  0  0
  104.8280   97.7430  107.6480 S   0  0  1  0  0  0  0  0  0  0  0  0
  105.9500   98.8280  108.5750 C   0  0  0  0  0  0  0  0  0  0  0  0
  104.3320   96.9390  108.9530 O   0  0  0  0  0  0  0  0  0  0  0  0
  103.5340   96.4000  108.7390 H   0  0  0  0  0  0  0  0  0  0  0  0
  2  1  1  0  0  0  0
  3  2  2  0  0  0  0
  4  5  1  1  0  0  0
  4 10  1  0  0  0  0
  4  3  1  0  0  0  0
  6  5  2  0  0  0  0
  6  8  1  0  0  0  0
  7  6  1  0  0  0  0
  8  9  2  0  0  0  0
  9 10  1  0  0  0  0
 10 11  2  0  0  0  0
 11  2  1  0  0  0  0
 11 12  1  0  0  0  0
 13  3  1  0  0  0  0
 13 14  1  0  0  0  0
 14 16  1  0  0  0  0
 15 14  2  0  0  0  0
 17 12  1  0  0  0  0
 17 18  1  0  0  0  0
 19 17  2  0  0  0  0
 20 18  2  0  0  0  0
 21 19  1  0  0  0  0
 21 22  2  0  0  0  0
 22 23  1  0  0  0  0
 22 20  1  0  0  0  0
 23 24  1  1  0  0  0
 23 25  1  0  0  0  0
 26 25  1  0  0  0  0
M  END
>  <minimizedAffinity>
-8.75345039

>  <CNNscore>
0.612222373

>  <CNNaffinity>
6.76345682

$$$$

 OpenBabel08282607163D

 26 28  0  0  1  0  0  0  0  0999 V2000
  102.0810   99.0410  105.5850 C   0  0  0  0  0  0  0  0  0  0  0  0
  101.1570  100.0980  106.0840 C   0  0  0  0  0  0  0  0  0  0  0  0
  101.3750  100.9430  107.1120 C   0  0  0  0  0  0  0  0  0  0  0  0
  100.2080  101.8380  107.2110 C   0  0  0  0  0  0  0  0  0  0  0  0
   99.9760  102.8820  108.0940 C   0  0  0  0  0  0  0  0  0  0  0  0
   98.7950  103.6020  107.9640 C   0  0  0  0  0  0  0  0  0  0  0  0
   98.5350  104.6130  108.8060 F   0  0  0  0  0  0  0  0  0  0  0  0
   97.8610  103.3010  106.9690 C   0  0  0  0  0  0  0  0  0  0  0  0
   98.0960  102.2470  106.0800 C   0  0  0  0  0  0  0  0  0  0  0  0
   99.2660  101.5110  106.2160 C   0  0  1  0  0  0  0  0  0  0  0  0
   99.8370  100.3630  105.4900 C   0  0  0  0  0  0  0  0  0  0  0  0
   99.2950   99.6240  104.5040 C   0  0  0  0  0  0  0  0  0  0  0  0
  102.5280  101.0060  108.0610 C   0  0  0  0  0  0  0  0  0  0  0  0
  103.0570   99.6220  108.4470 C   0  0  0  0  0  0  0  0  0  0  0  0
  102.2640   98.9040  109.1230 O   0  0  0  0  0  0  0  0  0  0  0  0
  104.2480   99.3830  108.0880 O   0  0  0  0  0  0  0  0  0  0  0  0
   97.9610   99.7730  103.9250 C   0  0  0  0  0  0  0  0  0  0  0  0
   96.8520   99.1890  104.5460 C   0  0  0  0  0  0  0  0  0  0  0  0
   97.7880  100.4950  102.7390 C   0  0  0  0  0  0  0  0  0  0  0  0
   95.5730   99.3570  104.0090 C   0  0  0  0  0  0  0  0  0  0  0  0
   96.5090  100.6550  102.1970 C   0  0  0  0  0  0  0  0  0  0  0  0
   95.3920  100.1010  102.8380 C   0  0  0  0  0  0  0  0  0  0  0  0
   93.7060  100.2930  102.2220 S   0  0  1  0  0  0  0  0  0  0  0  0
   92.8350   99.3410  103.4980 C   0  0  0  0  0  0  0  0  0  0  0  0
   93.4640  101.7130  102.9460 O   0  0  0  0  0  0  0  0  0  0  0  0
   94.0370  102.4060  102.5390 H   0  0  0  0  0  0  0  0  0  0  0  0
  1  2  1  0  0  0  0
  2  3  1  0  0  0  0
  3  4  2  0  0  0  0
  3 13  1  0  0  0  0
  4  5  1  0  0  0  0
  6  5  2  0  0  0  0
  6  7  1  0  0  0  0
  8  6  1  0  0  0  0
  9  8  2  0  0  0  0
 10  9  1  6  0  0  0
 10  4  1  0  0  0  0
 11  2  2  0  0  0  0
 11 10  1  0  0  0  0
 12 11  1  0  0  0  0
 13 14  1  0  0  0  0
 14 15  1  0  0  0  0
 16 14  2  0  0  0  0
 17 12  1  0  0  0  0
 17 18  1  0  0  0  0
 19 17  2  0  0  0  0
 20 18  2  0  0  0  0
 21 19  1  0  0  0  0
 21 22  2  0  0  0  0
 22 20  1  0  0  0  0
 23 22  1  0  0  0  0
 23 25  1  0  0  0  0
 23 24  1  1  0  0  0
 26 25  1  0  0  0  0
M  END
>  <minimizedAffinity>
-8.43247509

>  <CNNscore>
0.592803717

>  <CNNaffinity>
6.42444849

$$$$
