
 OpenBabel08272615533D

 37 41  0  0  1  0  0  0  0  0999 V2000
   97.8080  100.7030  103.6090 C   0  0  0  0  0  0  0  0  0  0  0  0
   98.2700  101.5300  104.6400 C   0  0  0  0  0  0  0  0  0  0  0  0
   99.3180  101.1170  105.4720 C   0  0  0  0  0  0  0  0  0  0  0  0
   99.9280   99.8690  105.2920 C   0  0  0  0  0  0  0  0  0  0  0  0
   99.4640   99.0430  104.2600 C   0  0  0  0  0  0  0  0  0  0  0  0
   98.4130   99.4510  103.4330 C   0  0  0  0  0  0  0  0  0  0  0  0
   96.7050  101.1210  102.7570 C   0  0  0  0  0  0  0  0  0  0  0  0
   95.0450  101.9640  101.5690 C   0  0  0  0  0  0  0  0  0  0  0  0
   95.5370  100.9420  100.8550 N   0  0  0  0  0  0  0  0  0  0  0  0
   95.7430  102.1160  102.8040 C   0  0  0  0  0  0  0  0  0  0  0  0
   96.5680  100.4180  101.6010 O   0  0  0  0  0  0  0  0  0  0  0  0
   93.8880  102.7030  101.0100 C   0  0  0  0  0  0  0  0  0  0  0  0
   95.5930  102.9720  103.8840 N   0  0  0  0  0  0  0  0  0  0  0  0
   95.5870  104.3350  103.8760 C   0  0  0  0  0  0  0  0  0  0  0  0
   95.8120  105.0770  102.9340 O   0  0  0  0  0  0  0  0  0  0  0  0
   95.4550  102.5540  104.7950 H   0  0  0  0  0  0  0  0  0  0  0  0
   95.3130  104.7610  105.1380 O   0  0  0  0  0  0  0  0  0  0  0  0
   96.1030  104.1630  106.1850 C   0  0  2  0  0  0  0  0  0  0  0  0
   95.1920  103.9780  107.3980 C   0  0  0  0  0  0  0  0  0  0  0  0
   97.2850  105.0610  106.4990 C   0  0  0  0  0  0  0  0  0  0  0  0
   97.4120  105.6890  107.7490 C   0  0  0  0  0  0  0  0  0  0  0  0
   98.2590  105.3110  105.5170 C   0  0  0  0  0  0  0  0  0  0  0  0
   98.4920  106.5310  108.0170 C   0  0  0  0  0  0  0  0  0  0  0  0
   99.3370  106.1590  105.7820 C   0  0  0  0  0  0  0  0  0  0  0  0
   99.4540  106.7690  107.0310 C   0  0  0  0  0  0  0  0  0  0  0  0
  101.0130   99.4280  106.1720 C   0  0  0  0  0  0  0  0  0  0  0  0
  101.9410   98.4690  105.7480 C   0  0  0  0  0  0  0  0  0  0  0  0
  101.1490   99.9590  107.4590 C   0  0  0  0  0  0  0  0  0  0  0  0
  102.9750   98.0530  106.5950 C   0  0  0  0  0  0  0  0  0  0  0  0
  102.1810   99.5320  108.3030 C   0  0  0  0  0  0  0  0  0  0  0  0
  103.1110   98.5620  107.8950 C   0  0  0  0  0  0  0  0  0  0  0  0
  104.2210   98.0970  108.8170 C   0  0  0  0  0  0  0  0  0  0  0  0
  104.2410   98.5990  110.2600 C   0  0  0  0  0  0  0  0  0  0  0  0
  103.8950   97.1680  109.9850 C   0  0  0  0  0  0  0  0  0  0  0  0
  105.5270   97.9090  108.1240 C   0  0  0  0  0  0  0  0  0  0  0  0
  105.6530   96.8970  107.3560 O   0  0  0  0  0  0  0  0  0  0  0  0
  106.4540   98.7560  108.3690 O   0  0  0  0  0  0  0  0  0  0  0  0
  1  2  1  0  0  0  0
  2  3  2  0  0  0  0
  4  3  1  0  0  0  0
  4 26  1  0  0  0  0
  5  4  2  0  0  0  0
  6  1  2  0  0  0  0
  6  5  1  0  0  0  0
  7 10  2  0  0  0  0
  7  1  1  0  0  0  0
  8 10  1  0  0  0  0
  9  8  2  0  0  0  0
  9 11  1  0  0  0  0
 10 13  1  0  0  0  0
 11  7  1  0  0  0  0
 12  8  1  0  0  0  0
 13 16  1  0  0  0  0
 14 13  1  0  0  0  0
 14 17  1  0  0  0  0
 15 14  2  0  0  0  0
 17 18  1  0  0  0  0
 18 20  1  0  0  0  0
 18 19  1  1  0  0  0
 20 21  1  0  0  0  0
 21 23  2  0  0  0  0
 22 24  1  0  0  0  0
 22 20  2  0  0  0  0
 24 25  2  0  0  0  0
 25 23  1  0  0  0  0
 26 28  1  0  0  0  0
 27 26  2  0  0  0  0
 27 29  1  0  0  0  0
 28 30  2  0  0  0  0
 29 31  2  0  0  0  0
 31 30  1  0  0  0  0
 31 32  1  0  0  0  0
 32 34  1  0  0  0  0
 32 33  1  0  0  0  0
 34 33  1  0  0  0  0
 35 37  1  0  0  0  0
 35 32  1  0  0  0  0
 36 35  2  0  0  0  0
M  END
>  <minimizedAffinity>
-8.99815464

>  <CNNscore>
0.820028067

>  <CNNaffinity>
7.6655159

$$$$

 OpenBabel08272615533D

 37 41  0  0  1  0  0  0  0  0999 V2000
   99.5700   99.5900  105.1080 C   0  0  0  0  0  0  0  0  0  0  0  0
   98.7160  100.6560  105.4160 C   0  0  0  0  0  0  0  0  0  0  0  0
   97.4940  100.8060  104.7510 C   0  0  0  0  0  0  0  0  0  0  0  0
   97.0960   99.8940  103.7650 C   0  0  0  0  0  0  0  0  0  0  0  0
   97.9510   98.8280  103.4590 C   0  0  0  0  0  0  0  0  0  0  0  0
   99.1770   98.6810  104.1160 C   0  0  0  0  0  0  0  0  0  0  0  0
  100.8520   99.4440  105.7820 C   0  0  0  0  0  0  0  0  0  0  0  0
  102.7520   99.4280  106.9080 C   0  0  0  0  0  0  0  0  0  0  0  0
  102.4790   98.1500  106.6120 N   0  0  0  0  0  0  0  0  0  0  0  0
  101.7520  100.3030  106.3880 C   0  0  0  0  0  0  0  0  0  0  0  0
  101.2970   98.1650  105.9070 O   0  0  0  0  0  0  0  0  0  0  0  0
  104.0030   99.7140  107.6490 C   0  0  0  0  0  0  0  0  0  0  0  0
  101.6020  101.6810  106.3850 N   0  0  0  0  0  0  0  0  0  0  0  0
  101.5340  102.5130  105.3060 C   0  0  0  0  0  0  0  0  0  0  0  0
  101.6900  102.2250  104.1310 O   0  0  0  0  0  0  0  0  0  0  0  0
  101.5160  102.1440  107.2810 H   0  0  0  0  0  0  0  0  0  0  0  0
  101.2860  103.7700  105.7610 O   0  0  0  0  0  0  0  0  0  0  0  0
  101.0760  104.7720  104.7460 C   0  0  2  0  0  0  0  0  0  0  0  0
  102.4080  104.9840  104.0270 C   0  0  0  0  0  0  0  0  0  0  0  0
  100.5750  106.0480  105.3950 C   0  0  0  0  0  0  0  0  0  0  0  0
  101.3780  107.1980  105.4570 C   0  0  0  0  0  0  0  0  0  0  0  0
   99.3000  106.0840  105.9850 C   0  0  0  0  0  0  0  0  0  0  0  0
  100.9140  108.3590  106.0770 C   0  0  0  0  0  0  0  0  0  0  0  0
   98.8370  107.2430  106.6120 C   0  0  0  0  0  0  0  0  0  0  0  0
   99.6430  108.3810  106.6590 C   0  0  0  0  0  0  0  0  0  0  0  0
   95.8240  100.0590  103.0560 C   0  0  0  0  0  0  0  0  0  0  0  0
   95.6780  101.0240  102.0520 C   0  0  0  0  0  0  0  0  0  0  0  0
   94.7250   99.2500  103.3640 C   0  0  0  0  0  0  0  0  0  0  0  0
   94.4590  101.1740  101.3800 C   0  0  0  0  0  0  0  0  0  0  0  0
   93.5080   99.4130  102.6930 C   0  0  0  0  0  0  0  0  0  0  0  0
   93.3430  100.3840  101.6930 C   0  0  0  0  0  0  0  0  0  0  0  0
   92.0190  100.5610  100.9750 C   0  0  0  0  0  0  0  0  0  0  0  0
   92.0080  100.6180   99.4480 C   0  0  0  0  0  0  0  0  0  0  0  0
   91.4510   99.4140  100.1430 C   0  0  0  0  0  0  0  0  0  0  0  0
   91.0560  101.4260  101.7140 C   0  0  0  0  0  0  0  0  0  0  0  0
   91.1910  102.6910  101.6100 O   0  0  0  0  0  0  0  0  0  0  0  0
   90.1730  100.8450  102.4350 O   0  0  0  0  0  0  0  0  0  0  0  0
  1  2  1  0  0  0  0
  1  7  1  0  0  0  0
  3  2  2  0  0  0  0
  4  3  1  0  0  0  0
  5  4  2  0  0  0  0
  5  6  1  0  0  0  0
  6  1  2  0  0  0  0
  7 11  1  0  0  0  0
  7 10  2  0  0  0  0
  8 12  1  0  0  0  0
  9  8  2  0  0  0  0
 10  8  1  0  0  0  0
 11  9  1  0  0  0  0
 13 10  1  0  0  0  0
 13 16  1  0  0  0  0
 14 17  1  0  0  0  0
 14 13  1  0  0  0  0
 15 14  2  0  0  0  0
 18 19  1  1  0  0  0
 18 20  1  0  0  0  0
 18 17  1  0  0  0  0
 20 21  2  0  0  0  0
 20 22  1  0  0  0  0
 21 23  1  0  0  0  0
 22 24  2  0  0  0  0
 23 25  2  0  0  0  0
 24 25  1  0  0  0  0
 26 28  1  0  0  0  0
 26  4  1  0  0  0  0
 27 26  2  0  0  0  0
 29 31  2  0  0  0  0
 29 27  1  0  0  0  0
 30 28  2  0  0  0  0
 31 30  1  0  0  0  0
 32 31  1  0  0  0  0
 32 35  1  0  0  0  0
 33 34  1  0  0  0  0
 33 32  1  0  0  0  0
 34 32  1  0  0  0  0
 35 37  1  0  0  0  0
 36 35  2  0  0  0  0
M  END
>  <minimizedAffinity>
-8.7176342

>  <CNNscore>
0.681317687

>  <CNNaffinity>
7.41453695

$$$$

 OpenBabel08272615533D

 37 41  0  0  1  0  0  0  0  0999 V2000
   97.5180  100.6760  103.6800 C   0  0  0  0  0  0  0  0  0  0  0  0
   98.3990  101.6300  104.2010 C   0  0  0  0  0  0  0  0  0  0  0  0
   99.5170  101.2380  104.9470 C   0  0  0  0  0  0  0  0  0  0  0  0
   99.7800   99.8830  105.1870 C   0  0  0  0  0  0  0  0  0  0  0  0
   98.8960   98.9290  104.6640 C   0  0  0  0  0  0  0  0  0  0  0  0
   97.7750   99.3210  103.9260 C   0  0  0  0  0  0  0  0  0  0  0  0
   96.3430  101.0820  102.9230 C   0  0  0  0  0  0  0  0  0  0  0  0
   94.5800  101.9090  101.8780 C   0  0  0  0  0  0  0  0  0  0  0  0
   95.0260  100.8950  101.1220 N   0  0  0  0  0  0  0  0  0  0  0  0
   95.3760  102.0650  103.0520 C   0  0  0  0  0  0  0  0  0  0  0  0
   96.1210  100.3820  101.7790 O   0  0  0  0  0  0  0  0  0  0  0  0
   93.3730  102.6340  101.4190 C   0  0  0  0  0  0  0  0  0  0  0  0
   95.3040  102.9150  104.1450 N   0  0  0  0  0  0  0  0  0  0  0  0
   95.4570  104.2700  104.1620 C   0  0  0  0  0  0  0  0  0  0  0  0
   95.7850  104.9960  103.2380 O   0  0  0  0  0  0  0  0  0  0  0  0
   95.1000  102.5020  105.0460 H   0  0  0  0  0  0  0  0  0  0  0  0
   95.2080  104.7040  105.4260 O   0  0  0  0  0  0  0  0  0  0  0  0
   96.1100  104.2220  106.4420 C   0  0  2  0  0  0  0  0  0  0  0  0
   95.3090  104.0760  107.7350 C   0  0  0  0  0  0  0  0  0  0  0  0
   97.2600  105.1990  106.5980 C   0  0  0  0  0  0  0  0  0  0  0  0
   98.0280  105.6040  105.4940 C   0  0  0  0  0  0  0  0  0  0  0  0
   97.6010  105.6870  107.8710 C   0  0  0  0  0  0  0  0  0  0  0  0
   99.0980  106.4850  105.6540 C   0  0  0  0  0  0  0  0  0  0  0  0
   98.6760  106.5640  108.0340 C   0  0  0  0  0  0  0  0  0  0  0  0
   99.4250  106.9640  106.9260 C   0  0  0  0  0  0  0  0  0  0  0  0
  100.9390   99.4710  105.9820 C   0  0  0  0  0  0  0  0  0  0  0  0
  101.8050   98.4680  105.5280 C   0  0  0  0  0  0  0  0  0  0  0  0
  101.2120  100.0740  107.2150 C   0  0  0  0  0  0  0  0  0  0  0  0
  102.9110   98.0800  106.2940 C   0  0  0  0  0  0  0  0  0  0  0  0
  102.3150   99.6750  107.9770 C   0  0  0  0  0  0  0  0  0  0  0  0
  103.1840   98.6630  107.5410 C   0  0  0  0  0  0  0  0  0  0  0  0
  104.3720   98.2290  108.3760 C   0  0  0  0  0  0  0  0  0  0  0  0
  105.5760   97.5990  107.6780 C   0  0  0  0  0  0  0  0  0  0  0  0
  105.6980   98.9760  108.2520 C   0  0  0  0  0  0  0  0  0  0  0  0
  103.9920   97.7080  109.7210 C   0  0  0  0  0  0  0  0  0  0  0  0
  104.6640   98.1140  110.7280 O   0  0  0  0  0  0  0  0  0  0  0  0
  103.0360   96.8610  109.7780 O   0  0  0  0  0  0  0  0  0  0  0  0
  1  6  2  0  0  0  0
  1  2  1  0  0  0  0
  2  3  2  0  0  0  0
  3  4  1  0  0  0  0
  4 26  1  0  0  0  0
  5  4  2  0  0  0  0
  6  5  1  0  0  0  0
  7 10  2  0  0  0  0
  7  1  1  0  0  0  0
  8 10  1  0  0  0  0
  9 11  1  0  0  0  0
  9  8  2  0  0  0  0
 10 13  1  0  0  0  0
 11  7  1  0  0  0  0
 12  8  1  0  0  0  0
 13 14  1  0  0  0  0
 13 16  1  0  0  0  0
 14 17  1  0  0  0  0
 15 14  2  0  0  0  0
 17 18  1  0  0  0  0
 18 20  1  0  0  0  0
 18 19  1  1  0  0  0
 20 22  1  0  0  0  0
 21 23  1  0  0  0  0
 21 20  2  0  0  0  0
 22 24  2  0  0  0  0
 23 25  2  0  0  0  0
 25 24  1  0  0  0  0
 26 28  1  0  0  0  0
 27 26  2  0  0  0  0
 27 29  1  0  0  0  0
 28 30  2  0  0  0  0
 29 31  2  0  0  0  0
 31 30  1  0  0  0  0
 31 32  1  0  0  0  0
 32 35  1  0  0  0  0
 33 34  1  0  0  0  0
 33 32  1  0  0  0  0
 34 32  1  0  0  0  0
 35 37  2  0  0  0  0
 35 36  1  0  0  0  0
M  END
>  <minimizedAffinity>
-9.76156902

>  <CNNscore>
0.628295302

>  <CNNaffinity>
7.10634947

$$$$

 OpenBabel08272615533D

 37 41  0  0  1  0  0  0  0  0999 V2000
   95.7560   99.8310  102.7470 C   0  0  0  0  0  0  0  0  0  0  0  0
   97.0140   99.6080  102.1750 C   0  0  0  0  0  0  0  0  0  0  0  0
   98.1690   99.6190  102.9640 C   0  0  0  0  0  0  0  0  0  0  0  0
   98.0940   99.8530  104.3430 C   0  0  0  0  0  0  0  0  0  0  0  0
   96.8340  100.0760  104.9140 C   0  0  0  0  0  0  0  0  0  0  0  0
   95.6800  100.0720  104.1250 C   0  0  0  0  0  0  0  0  0  0  0  0
   94.5550   99.8410  101.9240 C   0  0  0  0  0  0  0  0  0  0  0  0
   92.8240  100.0440  100.5670 C   0  0  0  0  0  0  0  0  0  0  0  0
   92.8340   98.7670  100.9770 N   0  0  0  0  0  0  0  0  0  0  0  0
   93.8940  100.7830  101.1540 C   0  0  0  0  0  0  0  0  0  0  0  0
   93.9110   98.6480  101.8250 O   0  0  0  0  0  0  0  0  0  0  0  0
   91.7360  100.4670   99.6550 C   0  0  0  0  0  0  0  0  0  0  0  0
   94.2800  102.1130  101.0880 N   0  0  0  0  0  0  0  0  0  0  0  0
   95.5180  102.6360  101.3170 C   0  0  0  0  0  0  0  0  0  0  0  0
   96.5110  102.0540  101.7220 O   0  0  0  0  0  0  0  0  0  0  0  0
   93.5770  102.7910  100.8270 H   0  0  0  0  0  0  0  0  0  0  0  0
   95.4680  103.9670  101.0450 O   0  0  0  0  0  0  0  0  0  0  0  0
   94.9750  104.8050  102.1100 C   0  0  2  0  0  0  0  0  0  0  0  0
   95.2490  106.2560  101.7170 C   0  0  0  0  0  0  0  0  0  0  0  0
   95.6690  104.4310  103.4060 C   0  0  0  0  0  0  0  0  0  0  0  0
   96.9700  104.8750  103.6910 C   0  0  0  0  0  0  0  0  0  0  0  0
   95.0240  103.5930  104.3330 C   0  0  0  0  0  0  0  0  0  0  0  0
   97.6060  104.5050  104.8780 C   0  0  0  0  0  0  0  0  0  0  0  0
   95.6620  103.2170  105.5180 C   0  0  0  0  0  0  0  0  0  0  0  0
   96.9520  103.6720  105.7900 C   0  0  0  0  0  0  0  0  0  0  0  0
   99.3040   99.8820  105.1680 C   0  0  0  0  0  0  0  0  0  0  0  0
  100.3560   98.9870  104.9400 C   0  0  0  0  0  0  0  0  0  0  0  0
   99.4380  100.8120  106.2060 C   0  0  0  0  0  0  0  0  0  0  0  0
  101.5090   99.0220  105.7330 C   0  0  0  0  0  0  0  0  0  0  0  0
  100.5910  100.8350  107.0000 C   0  0  0  0  0  0  0  0  0  0  0  0
  101.6480   99.9350  106.7890 C   0  0  0  0  0  0  0  0  0  0  0  0
  102.8890   99.9600  107.6590 C   0  0  0  0  0  0  0  0  0  0  0  0
  103.8980  101.0930  107.4750 C   0  0  0  0  0  0  0  0  0  0  0  0
  103.0540  101.0550  108.7110 C   0  0  0  0  0  0  0  0  0  0  0  0
  103.4140   98.6020  107.9820 C   0  0  0  0  0  0  0  0  0  0  0  0
  102.5840   97.7300  108.4070 O   0  0  0  0  0  0  0  0  0  0  0  0
  104.6700   98.4060  107.8430 O   0  0  0  0  0  0  0  0  0  0  0  0
  1  6  1  0  0  0  0
  2  1  2  0  0  0  0
  2  3  1  0  0  0  0
  3  4  2  0  0  0  0
  4  5  1  0  0  0  0
  4 26  1  0  0  0  0
  6  5  2  0  0  0  0
  7  1  1  0  0  0  0
  8  9  2  0  0  0  0
  8 10  1  0  0  0  0
  9 11  1  0  0  0  0
 10  7  2  0  0  0  0
 11  7  1  0  0  0  0
 12  8  1  0  0  0  0
 13 10  1  0  0  0  0
 13 14  1  0  0  0  0
 14 15  2  0  0  0  0
 16 13  1  0  0  0  0
 17 14  1  0  0  0  0
 17 18  1  0  0  0  0
 18 19  1  6  0  0  0
 18 20  1  0  0  0  0
 20 21  2  0  0  0  0
 20 22  1  0  0  0  0
 21 23  1  0  0  0  0
 22 24  2  0  0  0  0
 23 25  2  0  0  0  0
 24 25  1  0  0  0  0
 26 28  1  0  0  0  0
 27 26  2  0  0  0  0
 27 29  1  0  0  0  0
 28 30  2  0  0  0  0
 29 31  2  0  0  0  0
 31 30  1  0  0  0  0
 31 32  1  0  0  0  0
 32 35  1  0  0  0  0
 32 34  1  0  0  0  0
 33 32  1  0  0  0  0
 33 34  1  0  0  0  0
 35 36  1  0  0  0  0
 37 35  2  0  0  0  0
M  END
>  <minimizedAffinity>
-6.83137321

>  <CNNscore>
0.62036252

>  <CNNaffinity>
7.03985786

$$$$

 OpenBabel08272615533D

 37 41  0  0  1  0  0  0  0  0999 V2000
   95.0630  100.7770  102.7920 C   0  0  0  0  0  0  0  0  0  0  0  0
   96.2740  101.2160  102.2430 C   0  0  0  0  0  0  0  0  0  0  0  0
   97.4680  101.1020  102.9650 C   0  0  0  0  0  0  0  0  0  0  0  0
   97.4790  100.5450  104.2500 C   0  0  0  0  0  0  0  0  0  0  0  0
   96.2670  100.1060  104.7970 C   0  0  0  0  0  0  0  0  0  0  0  0
   95.0720  100.2270  104.0810 C   0  0  0  0  0  0  0  0  0  0  0  0
   93.8170  100.9150  102.0530 C   0  0  0  0  0  0  0  0  0  0  0  0
   91.8180  101.0340  101.1200 C   0  0  0  0  0  0  0  0  0  0  0  0
   92.5820  101.9380  100.4910 N   0  0  0  0  0  0  0  0  0  0  0  0
   92.5600  100.3380  102.1200 C   0  0  0  0  0  0  0  0  0  0  0  0
   93.8270  101.8570  101.0730 O   0  0  0  0  0  0  0  0  0  0  0  0
   90.4150  100.8830  100.6690 C   0  0  0  0  0  0  0  0  0  0  0  0
   92.2470   99.3050  102.9910 N   0  0  0  0  0  0  0  0  0  0  0  0
   91.1490   99.1880  103.7900 C   0  0  0  0  0  0  0  0  0  0  0  0
   90.2690  100.0140  103.9740 O   0  0  0  0  0  0  0  0  0  0  0  0
   92.8930   98.5280  103.0440 H   0  0  0  0  0  0  0  0  0  0  0  0
   91.2010   97.9750  104.4000 O   0  0  0  0  0  0  0  0  0  0  0  0
   90.3640   97.8230  105.5640 C   0  0  2  0  0  0  0  0  0  0  0  0
   91.1230   98.4080  106.7540 C   0  0  0  0  0  0  0  0  0  0  0  0
   90.0430   96.3540  105.7650 C   0  0  0  0  0  0  0  0  0  0  0  0
   90.5130   95.3770  104.8720 C   0  0  0  0  0  0  0  0  0  0  0  0
   89.2310   95.9520  106.8390 C   0  0  0  0  0  0  0  0  0  0  0  0
   90.1920   94.0310  105.0560 C   0  0  0  0  0  0  0  0  0  0  0  0
   88.9040   94.6060  107.0200 C   0  0  0  0  0  0  0  0  0  0  0  0
   89.3840   93.6450  106.1290 C   0  0  0  0  0  0  0  0  0  0  0  0
   98.7250  100.4400  105.0130 C   0  0  0  0  0  0  0  0  0  0  0  0
   98.9960  101.3110  106.0760 C   0  0  0  0  0  0  0  0  0  0  0  0
   99.6750   99.4610  104.7000 C   0  0  0  0  0  0  0  0  0  0  0  0
  100.1890  101.2030  106.8010 C   0  0  0  0  0  0  0  0  0  0  0  0
  100.8680   99.3650  105.4240 C   0  0  0  0  0  0  0  0  0  0  0  0
  101.1580  100.2390  106.4840 C   0  0  0  0  0  0  0  0  0  0  0  0
  102.4570  100.1360  107.2590 C   0  0  0  0  0  0  0  0  0  0  0  0
  103.4820  101.2630  107.1370 C   0  0  0  0  0  0  0  0  0  0  0  0
  102.7250  101.0940  108.4180 C   0  0  0  0  0  0  0  0  0  0  0  0
  102.9650   98.7390  107.3810 C   0  0  0  0  0  0  0  0  0  0  0  0
  103.5980   98.4270  108.4450 O   0  0  0  0  0  0  0  0  0  0  0  0
  102.7620   97.9490  106.3970 O   0  0  0  0  0  0  0  0  0  0  0  0
  1  6  1  0  0  0  0
  2  1  2  0  0  0  0
  2  3  1  0  0  0  0
  3  4  2  0  0  0  0
  4  5  1  0  0  0  0
  4 26  1  0  0  0  0
  6  5  2  0  0  0  0
  7 10  2  0  0  0  0
  7  1  1  0  0  0  0
  8 10  1  0  0  0  0
  9 11  1  0  0  0  0
  9  8  2  0  0  0  0
 10 13  1  0  0  0  0
 11  7  1  0  0  0  0
 12  8  1  0  0  0  0
 13 16  1  0  0  0  0
 13 14  1  0  0  0  0
 14 15  2  0  0  0  0
 14 17  1  0  0  0  0
 17 18  1  0  0  0  0
 18 20  1  0  0  0  0
 18 19  1  1  0  0  0
 20 22  1  0  0  0  0
 21 23  1  0  0  0  0
 21 20  2  0  0  0  0
 22 24  2  0  0  0  0
 23 25  2  0  0  0  0
 25 24  1  0  0  0  0
 26 27  1  0  0  0  0
 27 29  2  0  0  0  0
 28 26  2  0  0  0  0
 28 30  1  0  0  0  0
 30 31  2  0  0  0  0
 31 29  1  0  0  0  0
 31 32  1  0  0  0  0
 32 35  1  0  0  0  0
 32 34  1  0  0  0  0
 33 32  1  0  0  0  0
 33 34  1  0  0  0  0
 35 36  1  0  0  0  0
 37 35  2  0  0  0  0
M  END
>  <minimizedAffinity>
-9.62427521

>  <CNNscore>
0.592465758

>  <CNNaffinity>
6.5984478

$$$$

 OpenBabel08272615533D

 37 41  0  0  1  0  0  0  0  0999 V2000
   97.0820  101.5520  103.7260 C   0  0  0  0  0  0  0  0  0  0  0  0
   97.8800  102.4360  104.4620 C   0  0  0  0  0  0  0  0  0  0  0  0
   98.9350  101.9600  105.2490 C   0  0  0  0  0  0  0  0  0  0  0  0
   99.2170  100.5900  105.3180 C   0  0  0  0  0  0  0  0  0  0  0  0
   98.4170   99.7060  104.5820 C   0  0  0  0  0  0  0  0  0  0  0  0
   97.3580  100.1800  103.8010 C   0  0  0  0  0  0  0  0  0  0  0  0
   95.9700  102.0430  102.9240 C   0  0  0  0  0  0  0  0  0  0  0  0
   94.1420  102.6960  101.8710 C   0  0  0  0  0  0  0  0  0  0  0  0
   95.1280  103.5020  101.4510 N   0  0  0  0  0  0  0  0  0  0  0  0
   94.6270  101.7320  102.8040 C   0  0  0  0  0  0  0  0  0  0  0  0
   96.2650  103.0880  102.1070 O   0  0  0  0  0  0  0  0  0  0  0  0
   92.7920  102.8990  101.2960 C   0  0  0  0  0  0  0  0  0  0  0  0
   94.0320  100.6750  103.4770 N   0  0  0  0  0  0  0  0  0  0  0  0
   94.0740   99.3500  103.1570 C   0  0  0  0  0  0  0  0  0  0  0  0
   94.5600   98.8380  102.1620 O   0  0  0  0  0  0  0  0  0  0  0  0
   93.5100  100.8910  104.3160 H   0  0  0  0  0  0  0  0  0  0  0  0
   93.4380   98.6610  104.1410 O   0  0  0  0  0  0  0  0  0  0  0  0
   92.1060   98.2070  103.8260 C   0  0  2  0  0  0  0  0  0  0  0  0
   91.4170   99.3200  103.0370 C   0  0  0  0  0  0  0  0  0  0  0  0
   91.3670   97.8860  105.1110 C   0  0  0  0  0  0  0  0  0  0  0  0
   91.3410   98.7920  106.1840 C   0  0  0  0  0  0  0  0  0  0  0  0
   90.7250   96.6450  105.2610 C   0  0  0  0  0  0  0  0  0  0  0  0
   90.6770   98.4740  107.3690 C   0  0  0  0  0  0  0  0  0  0  0  0
   90.0650   96.3230  106.4500 C   0  0  0  0  0  0  0  0  0  0  0  0
   90.0410   97.2370  107.5040 C   0  0  0  0  0  0  0  0  0  0  0  0
  100.3090  100.0870  106.1550 C   0  0  0  0  0  0  0  0  0  0  0  0
  101.1050   99.0140  105.7360 C   0  0  0  0  0  0  0  0  0  0  0  0
  100.5870  100.6740  107.3950 C   0  0  0  0  0  0  0  0  0  0  0  0
  102.1470   98.5410  106.5410 C   0  0  0  0  0  0  0  0  0  0  0  0
  101.6260  100.1890  108.1980 C   0  0  0  0  0  0  0  0  0  0  0  0
  102.4230   99.1060  107.7950 C   0  0  0  0  0  0  0  0  0  0  0  0
  103.5410   98.5790  108.6740 C   0  0  0  0  0  0  0  0  0  0  0  0
  103.5210   98.9030  110.1670 C   0  0  0  0  0  0  0  0  0  0  0  0
  103.2420   97.5030  109.7150 C   0  0  0  0  0  0  0  0  0  0  0  0
  104.8630   98.5310  107.9860 C   0  0  0  0  0  0  0  0  0  0  0  0
  105.4840   99.6330  107.8120 O   0  0  0  0  0  0  0  0  0  0  0  0
  105.2770   97.3910  107.5820 O   0  0  0  0  0  0  0  0  0  0  0  0
  1  6  2  0  0  0  0
  1  2  1  0  0  0  0
  2  3  2  0  0  0  0
  3  4  1  0  0  0  0
  4 26  1  0  0  0  0
  5  4  2  0  0  0  0
  6  5  1  0  0  0  0
  7  1  1  0  0  0  0
  8 10  1  0  0  0  0
  9  8  2  0  0  0  0
  9 11  1  0  0  0  0
 10  7  2  0  0  0  0
 10 13  1  0  0  0  0
 11  7  1  0  0  0  0
 12  8  1  0  0  0  0
 13 16  1  0  0  0  0
 14 13  1  0  0  0  0
 14 17  1  0  0  0  0
 15 14  2  0  0  0  0
 18 19  1  1  0  0  0
 18 17  1  0  0  0  0
 18 20  1  0  0  0  0
 20 22  2  0  0  0  0
 20 21  1  0  0  0  0
 21 23  2  0  0  0  0
 22 24  1  0  0  0  0
 23 25  1  0  0  0  0
 24 25  2  0  0  0  0
 26 28  1  0  0  0  0
 27 26  2  0  0  0  0
 27 29  1  0  0  0  0
 28 30  2  0  0  0  0
 29 31  2  0  0  0  0
 31 30  1  0  0  0  0
 31 32  1  0  0  0  0
 32 34  1  0  0  0  0
 32 33  1  0  0  0  0
 34 33  1  0  0  0  0
 35 32  1  0  0  0  0
 36 35  1  0  0  0  0
 37 35  2  0  0  0  0
M  END
>  <minimizedAffinity>
-8.64894104

>  <CNNscore>
0.582850814

>  <CNNaffinity>
6.83759069

$$$$

 OpenBabel08272615533D

 37 41  0  0  1  0  0  0  0  0999 V2000
   99.3440   99.7490  105.1440 C   0  0  0  0  0  0  0  0  0  0  0  0
   98.7630  101.0170  105.0120 C   0  0  0  0  0  0  0  0  0  0  0  0
   97.5570  101.1810  104.3220 C   0  0  0  0  0  0  0  0  0  0  0  0
   96.9030  100.0840  103.7480 C   0  0  0  0  0  0  0  0  0  0  0  0
   97.4850   98.8170  103.8800 C   0  0  0  0  0  0  0  0  0  0  0  0
   98.6950   98.6520  104.5640 C   0  0  0  0  0  0  0  0  0  0  0  0
  100.6090   99.5790  105.8420 C   0  0  0  0  0  0  0  0  0  0  0  0
  102.4220   99.4050  107.0930 C   0  0  0  0  0  0  0  0  0  0  0  0
  102.5710   98.5280  106.0900 N   0  0  0  0  0  0  0  0  0  0  0  0
  101.1910  100.1170  106.9780 C   0  0  0  0  0  0  0  0  0  0  0  0
  101.4410   98.6430  105.3120 O   0  0  0  0  0  0  0  0  0  0  0  0
  103.5200   99.5170  108.0810 C   0  0  0  0  0  0  0  0  0  0  0  0
  100.6070  101.1350  107.7160 N   0  0  0  0  0  0  0  0  0  0  0  0
  100.5960  102.4700  107.4390 C   0  0  0  0  0  0  0  0  0  0  0  0
  101.1810  103.0490  106.5390 O   0  0  0  0  0  0  0  0  0  0  0  0
  100.1130  100.8750  108.5600 H   0  0  0  0  0  0  0  0  0  0  0  0
   99.8280  103.0860  108.3760 O   0  0  0  0  0  0  0  0  0  0  0  0
   99.2580  104.3500  107.9830 C   0  0  2  0  0  0  0  0  0  0  0  0
   99.4390  105.3180  109.1520 C   0  0  0  0  0  0  0  0  0  0  0  0
   97.7940  104.1550  107.6340 C   0  0  0  0  0  0  0  0  0  0  0  0
   97.1910  102.8880  107.7030 C   0  0  0  0  0  0  0  0  0  0  0  0
   97.0250  105.2450  107.1930 C   0  0  0  0  0  0  0  0  0  0  0  0
   95.8500  102.7180  107.3570 C   0  0  0  0  0  0  0  0  0  0  0  0
   95.6840  105.0740  106.8400 C   0  0  0  0  0  0  0  0  0  0  0  0
   95.0960  103.8110  106.9220 C   0  0  0  0  0  0  0  0  0  0  0  0
   95.6490  100.2570  103.0100 C   0  0  0  0  0  0  0  0  0  0  0  0
   95.6390  100.8140  101.7260 C   0  0  0  0  0  0  0  0  0  0  0  0
   94.4300   99.8630  103.5720 C   0  0  0  0  0  0  0  0  0  0  0  0
   94.4360  100.9740  101.0270 C   0  0  0  0  0  0  0  0  0  0  0  0
   93.2310  100.0350  102.8710 C   0  0  0  0  0  0  0  0  0  0  0  0
   93.2050  100.6030  101.5870 C   0  0  0  0  0  0  0  0  0  0  0  0
   91.9010  100.7950  100.8360 C   0  0  0  0  0  0  0  0  0  0  0  0
   90.8160  101.6760  101.4530 C   0  0  0  0  0  0  0  0  0  0  0  0
   91.5610  102.1630  100.2490 C   0  0  0  0  0  0  0  0  0  0  0  0
   91.4730   99.5860  100.0760 C   0  0  0  0  0  0  0  0  0  0  0  0
   92.0520   98.4800  100.3400 O   0  0  0  0  0  0  0  0  0  0  0  0
   90.5720   99.7400   99.1800 O   0  0  0  0  0  0  0  0  0  0  0  0
  1  7  1  0  0  0  0
  2  1  1  0  0  0  0
  3  2  2  0  0  0  0
  4  5  2  0  0  0  0
  4  3  1  0  0  0  0
  5  6  1  0  0  0  0
  6  1  2  0  0  0  0
  7 10  2  0  0  0  0
  8 12  1  0  0  0  0
  9  8  2  0  0  0  0
 10  8  1  0  0  0  0
 10 13  1  0  0  0  0
 11  7  1  0  0  0  0
 11  9  1  0  0  0  0
 13 16  1  0  0  0  0
 14 13  1  0  0  0  0
 14 17  1  0  0  0  0
 15 14  2  0  0  0  0
 18 17  1  0  0  0  0
 18 19  1  1  0  0  0
 20 21  1  0  0  0  0
 20 18  1  0  0  0  0
 22 20  2  0  0  0  0
 23 21  2  0  0  0  0
 24 25  2  0  0  0  0
 24 22  1  0  0  0  0
 25 23  1  0  0  0  0
 26 28  1  0  0  0  0
 26  4  1  0  0  0  0
 27 26  2  0  0  0  0
 29 31  2  0  0  0  0
 29 27  1  0  0  0  0
 30 28  2  0  0  0  0
 31 30  1  0  0  0  0
 32 33  1  0  0  0  0
 32 31  1  0  0  0  0
 34 32  1  0  0  0  0
 34 33  1  0  0  0  0
 35 36  1  0  0  0  0
 35 32  1  0  0  0  0
 37 35  2  0  0  0  0
M  END
>  <minimizedAffinity>
-9.8651762

>  <CNNscore>
0.548334837

>  <CNNaffinity>
7.14622736

$$$$

 OpenBabel08272615533D

 37 41  0  0  1  0  0  0  0  0999 V2000
   99.1660   99.6880  105.0410 C   0  0  0  0  0  0  0  0  0  0  0  0
   98.4950   98.5970  104.4740 C   0  0  0  0  0  0  0  0  0  0  0  0
   97.2560   98.7680  103.8470 C   0  0  0  0  0  0  0  0  0  0  0  0
   96.6590  100.0330  103.7700 C   0  0  0  0  0  0  0  0  0  0  0  0
   97.3320  101.1230  104.3370 C   0  0  0  0  0  0  0  0  0  0  0  0
   98.5660  100.9520  104.9710 C   0  0  0  0  0  0  0  0  0  0  0  0
  100.4440   99.5080  105.7130 C   0  0  0  0  0  0  0  0  0  0  0  0
  102.2800   99.3200  106.9270 C   0  0  0  0  0  0  0  0  0  0  0  0
  102.4080   98.4530  105.9130 N   0  0  0  0  0  0  0  0  0  0  0  0
  101.0480  100.0350  106.8430 C   0  0  0  0  0  0  0  0  0  0  0  0
  101.2640   98.5770  105.1580 O   0  0  0  0  0  0  0  0  0  0  0  0
  103.3970   99.4210  107.8950 C   0  0  0  0  0  0  0  0  0  0  0  0
  100.4800  101.0460  107.6020 N   0  0  0  0  0  0  0  0  0  0  0  0
  100.5840  102.3930  107.4140 C   0  0  0  0  0  0  0  0  0  0  0  0
  101.2760  102.9810  106.6000 O   0  0  0  0  0  0  0  0  0  0  0  0
   99.9040  100.7720  108.3880 H   0  0  0  0  0  0  0  0  0  0  0  0
   99.7890  103.0060  108.3300 O   0  0  0  0  0  0  0  0  0  0  0  0
   99.2410  104.2780  107.9310 C   0  0  2  0  0  0  0  0  0  0  0  0
   99.4750  105.2590  109.0790 C   0  0  0  0  0  0  0  0  0  0  0  0
   97.7650  104.1150  107.6200 C   0  0  0  0  0  0  0  0  0  0  0  0
   97.1460  102.8550  107.6650 C   0  0  0  0  0  0  0  0  0  0  0  0
   96.9990  105.2300  107.2400 C   0  0  0  0  0  0  0  0  0  0  0  0
   95.7930  102.7150  107.3540 C   0  0  0  0  0  0  0  0  0  0  0  0
   95.6450  105.0890  106.9220 C   0  0  0  0  0  0  0  0  0  0  0  0
   95.0420  103.8320  106.9790 C   0  0  0  0  0  0  0  0  0  0  0  0
   95.3540  100.2120  103.1280 C   0  0  0  0  0  0  0  0  0  0  0  0
   94.5400   99.1130  102.8290 C   0  0  0  0  0  0  0  0  0  0  0  0
   94.8880  101.4910  102.8030 C   0  0  0  0  0  0  0  0  0  0  0  0
   93.2950   99.2930  102.2170 C   0  0  0  0  0  0  0  0  0  0  0  0
   93.6450  101.6620  102.1830 C   0  0  0  0  0  0  0  0  0  0  0  0
   92.8240  100.5670  101.8670 C   0  0  0  0  0  0  0  0  0  0  0  0
   91.4820  100.7590  101.1870 C   0  0  0  0  0  0  0  0  0  0  0  0
   91.2850  101.9620  100.2660 C   0  0  0  0  0  0  0  0  0  0  0  0
   91.3700  100.5900   99.6730 C   0  0  0  0  0  0  0  0  0  0  0  0
   90.3270  100.3200  102.0210 C   0  0  0  0  0  0  0  0  0  0  0  0
   90.3830  100.5400  103.2780 O   0  0  0  0  0  0  0  0  0  0  0  0
   89.3650   99.7200  101.4300 O   0  0  0  0  0  0  0  0  0  0  0  0
  1  7  1  0  0  0  0
  2  1  2  0  0  0  0
  3  2  1  0  0  0  0
  4  3  2  0  0  0  0
  4  5  1  0  0  0  0
  5  6  2  0  0  0  0
  6  1  1  0  0  0  0
  7 10  2  0  0  0  0
  8 12  1  0  0  0  0
  9  8  2  0  0  0  0
 10  8  1  0  0  0  0
 10 13  1  0  0  0  0
 11  7  1  0  0  0  0
 11  9  1  0  0  0  0
 13 16  1  0  0  0  0
 14 13  1  0  0  0  0
 14 17  1  0  0  0  0
 15 14  2  0  0  0  0
 18 17  1  0  0  0  0
 18 19  1  1  0  0  0
 20 21  1  0  0  0  0
 20 18  1  0  0  0  0
 22 20  2  0  0  0  0
 23 21  2  0  0  0  0
 24 25  2  0  0  0  0
 24 22  1  0  0  0  0
 25 23  1  0  0  0  0
 26  4  1  0  0  0  0
 27 26  1  0  0  0  0
 28 26  2  0  0  0  0
 29 27  2  0  0  0  0
 30 28  1  0  0  0  0
 31 30  2  0  0  0  0
 31 29  1  0  0  0  0
 32 31  1  0  0  0  0
 32 35  1  0  0  0  0
 33 32  1  0  0  0  0
 34 33  1  0  0  0  0
 34 32  1  0  0  0  0
 35 36  1  0  0  0  0
 37 35  2  0  0  0  0
M  END
>  <minimizedAffinity>
-9.6381712

>  <CNNscore>
0.529191852

>  <CNNaffinity>
7.07523155

$$$$

 OpenBabel08272615533D

 37 41  0  0  1  0  0  0  0  0999 V2000
   97.8640  101.1040  103.7570 C   0  0  0  0  0  0  0  0  0  0  0  0
   98.7270  101.9880  104.4150 C   0  0  0  0  0  0  0  0  0  0  0  0
   99.8090  101.5070  105.1610 C   0  0  0  0  0  0  0  0  0  0  0  0
  100.0530  100.1320  105.2660 C   0  0  0  0  0  0  0  0  0  0  0  0
   99.1880   99.2490  104.6070 C   0  0  0  0  0  0  0  0  0  0  0  0
   98.1020   99.7280  103.8670 C   0  0  0  0  0  0  0  0  0  0  0  0
   96.7250  101.6010  102.9980 C   0  0  0  0  0  0  0  0  0  0  0  0
   95.0140  102.5520  101.9750 C   0  0  0  0  0  0  0  0  0  0  0  0
   95.4920  101.6280  101.1290 N   0  0  0  0  0  0  0  0  0  0  0  0
   95.7550  102.5690  103.1940 C   0  0  0  0  0  0  0  0  0  0  0  0
   96.5550  101.0360  101.7730 O   0  0  0  0  0  0  0  0  0  0  0  0
   93.8300  103.3320  101.5460 C   0  0  0  0  0  0  0  0  0  0  0  0
   95.6330  103.2910  104.3720 N   0  0  0  0  0  0  0  0  0  0  0  0
   95.8650  104.6200  104.5650 C   0  0  0  0  0  0  0  0  0  0  0  0
   96.3200  105.4220  103.7670 O   0  0  0  0  0  0  0  0  0  0  0  0
   95.3230  102.7910  105.1950 H   0  0  0  0  0  0  0  0  0  0  0  0
   95.5270  104.9220  105.8470 O   0  0  0  0  0  0  0  0  0  0  0  0
   96.0040  104.0050  106.8520 C   0  0  2  0  0  0  0  0  0  0  0  0
   94.8310  103.6900  107.7790 C   0  0  0  0  0  0  0  0  0  0  0  0
   97.1610  104.6380  107.6020 C   0  0  0  0  0  0  0  0  0  0  0  0
   97.5260  105.9770  107.3830 C   0  0  0  0  0  0  0  0  0  0  0  0
   97.9170  103.8730  108.5060 C   0  0  0  0  0  0  0  0  0  0  0  0
   98.6070  106.5410  108.0630 C   0  0  0  0  0  0  0  0  0  0  0  0
   99.0040  104.4340  109.1820 C   0  0  0  0  0  0  0  0  0  0  0  0
   99.3490  105.7680  108.9600 C   0  0  0  0  0  0  0  0  0  0  0  0
  101.1750   99.6250  106.0610 C   0  0  0  0  0  0  0  0  0  0  0  0
  101.9380   98.5370  105.6210 C   0  0  0  0  0  0  0  0  0  0  0  0
  101.5130  100.2230  107.2810 C   0  0  0  0  0  0  0  0  0  0  0  0
  103.0080   98.0590  106.3870 C   0  0  0  0  0  0  0  0  0  0  0  0
  102.5790   99.7340  108.0440 C   0  0  0  0  0  0  0  0  0  0  0  0
  103.3450   98.6350  107.6210 C   0  0  0  0  0  0  0  0  0  0  0  0
  104.4930   98.1050  108.4570 C   0  0  0  0  0  0  0  0  0  0  0  0
  105.6540   97.4020  107.7560 C   0  0  0  0  0  0  0  0  0  0  0  0
  105.8690   98.7590  108.3530 C   0  0  0  0  0  0  0  0  0  0  0  0
  104.0670   97.5920  109.7910 C   0  0  0  0  0  0  0  0  0  0  0  0
  103.0680   96.7990  109.8320 O   0  0  0  0  0  0  0  0  0  0  0  0
  104.7100   98.0060  110.8160 O   0  0  0  0  0  0  0  0  0  0  0  0
  1  6  2  0  0  0  0
  1  2  1  0  0  0  0
  2  3  2  0  0  0  0
  3  4  1  0  0  0  0
  4 26  1  0  0  0  0
  5  4  2  0  0  0  0
  6  5  1  0  0  0  0
  7 10  2  0  0  0  0
  7  1  1  0  0  0  0
  8 10  1  0  0  0  0
  9 11  1  0  0  0  0
  9  8  2  0  0  0  0
 10 13  1  0  0  0  0
 11  7  1  0  0  0  0
 12  8  1  0  0  0  0
 13 14  1  0  0  0  0
 13 16  1  0  0  0  0
 14 17  1  0  0  0  0
 15 14  2  0  0  0  0
 17 18  1  0  0  0  0
 18 20  1  0  0  0  0
 18 19  1  1  0  0  0
 20 22  1  0  0  0  0
 21 20  2  0  0  0  0
 21 23  1  0  0  0  0
 22 24  2  0  0  0  0
 23 25  2  0  0  0  0
 25 24  1  0  0  0  0
 26 28  1  0  0  0  0
 27 26  2  0  0  0  0
 27 29  1  0  0  0  0
 28 30  2  0  0  0  0
 29 31  2  0  0  0  0
 31 30  1  0  0  0  0
 31 32  1  0  0  0  0
 32 35  1  0  0  0  0
 33 34  1  0  0  0  0
 33 32  1  0  0  0  0
 34 32  1  0  0  0  0
 35 36  2  0  0  0  0
 35 37  1  0  0  0  0
M  END
>  <minimizedAffinity>
-9.61374283

>  <CNNscore>
0.511265397

>  <CNNaffinity>
7.03189802

$$$$
