
 OpenBabel08282616143D

 30 34  0  0  0  0  0  0  0  0999 V2000
   99.7470  102.4030  106.8570 C   0  0  0  0  0  0  0  0  0  0  0  0
   99.9580  101.2870  106.1160 N   0  0  0  0  0  0  0  0  0  0  0  0
  100.9280  100.3990  106.4770 C   0  0  0  0  0  0  0  0  0  0  0  0
  101.7220  100.6140  107.6060 C   0  0  0  0  0  0  0  0  0  0  0  0
  101.5060  101.7450  108.3870 C   0  0  0  0  0  0  0  0  0  0  0  0
  100.5140  102.6340  108.0090 C   0  0  0  0  0  0  0  0  0  0  0  0
  100.3130  103.7180  108.7760 F   0  0  0  0  0  0  0  0  0  0  0  0
  102.7840   99.6470  107.9720 C   0  0  0  0  0  0  0  0  0  0  0  0
  103.3610   99.7800  109.0460 O   0  0  0  0  0  0  0  0  0  0  0  0
  103.0540   98.5620  107.0150 C   0  0  0  0  0  0  0  0  0  0  0  0
  102.2330   98.4250  105.9660 C   0  0  0  0  0  0  0  0  0  0  0  0
  101.1420   99.2270  105.6990 N   0  0  0  0  0  0  0  0  0  0  0  0
   98.7320  103.2600  106.4450 N   0  0  0  0  0  0  0  0  0  0  0  0
   97.6230  106.2570  104.7730 N   0  0  0  0  0  0  0  0  0  0  0  0
   97.8430  105.0850  105.2840 C   0  0  0  0  0  0  0  0  0  0  0  0
   99.0480  104.6500  106.0950 C   0  0  0  0  0  0  0  0  0  0  0  0
   96.8660  103.8950  105.1070 C   0  0  0  0  0  0  0  0  0  0  0  0
   97.6840  102.6890  105.5790 C   0  0  0  0  0  0  0  0  0  0  0  0
   96.0970  103.7200  103.7810 C   0  0  0  0  0  0  0  0  0  0  0  0
   95.4600  104.0280  105.7340 C   0  0  0  0  0  0  0  0  0  0  0  0
   94.9130  103.3070  104.5630 N   0  0  0  0  0  0  0  0  0  0  0  0
   94.0260  103.6690  104.2170 H   0  0  0  0  0  0  0  0  0  0  0  0
   98.6800  107.1250  105.0810 O   0  0  0  0  0  0  0  0  0  0  0  0
   98.6930  107.3370  106.4870 C   0  0  0  0  0  0  0  0  0  0  0  0
  100.4160   99.0430  104.4340 C   0  0  0  0  0  0  0  0  0  0  0  0
  100.6450   99.9400  103.2420 C   0  0  0  0  0  0  0  0  0  0  0  0
  101.1000   98.5130  103.1980 C   0  0  0  0  0  0  0  0  0  0  0  0
  104.2370   97.6310  107.1380 C   0  0  0  0  0  0  0  0  0  0  0  0
  104.5650   97.0230  106.0810 O   0  0  0  0  0  0  0  0  0  0  0  0
  104.6910   97.4940  108.3120 O   0  0  0  0  0  0  0  0  0  0  0  0
  1  6  1  0  0  0  0
  2  3  1  0  0  0  0
  2  1  2  0  0  0  0
  3  4  2  0  0  0  0
  4  8  1  0  0  0  0
  4  5  1  0  0  0  0
  6  5  2  0  0  0  0
  6  7  1  0  0  0  0
  8  9  2  0  0  0  0
 10 28  1  0  0  0  0
 10  8  1  0  0  0  0
 11 10  2  0  0  0  0
 12 11  1  0  0  0  0
 12  3  1  0  0  0  0
 13  1  1  0  0  0  0
 14 23  1  0  0  0  0
 14 15  2  0  0  0  0
 15 16  1  0  0  0  0
 16 13  1  0  0  0  0
 17 15  1  0  0  0  0
 17 18  1  0  0  0  0
 17 20  1  0  0  0  0
 18 13  1  0  0  0  0
 19 21  1  0  0  0  0
 19 17  1  0  0  0  0
 21 20  1  0  0  0  0
 22 21  1  0  0  0  0
 23 24  1  0  0  0  0
 25 12  1  0  0  0  0
 26 25  1  0  0  0  0
 27 26  1  0  0  0  0
 27 25  1  0  0  0  0
 28 30  1  0  0  0  0
 29 28  2  0  0  0  0
M  END
>  <minimizedAffinity>
-7.62202692

>  <CNNscore>
0.444254577

>  <CNNaffinity>
6.46288347

$$$$

 OpenBabel08282616143D

 30 34  0  0  0  0  0  0  0  0999 V2000
   98.9170  100.3820  104.5760 C   0  0  0  0  0  0  0  0  0  0  0  0
   99.4690  101.0510  105.6190 N   0  0  0  0  0  0  0  0  0  0  0  0
  100.5780  100.5550  106.2380 C   0  0  0  0  0  0  0  0  0  0  0  0
  101.1670   99.3590  105.8210 C   0  0  0  0  0  0  0  0  0  0  0  0
  100.6240   98.6710  104.7410 C   0  0  0  0  0  0  0  0  0  0  0  0
   99.5000   99.1910  104.1200 C   0  0  0  0  0  0  0  0  0  0  0  0
   98.9890   98.5190  103.0750 F   0  0  0  0  0  0  0  0  0  0  0  0
  102.3620   98.8280  106.5180 C   0  0  0  0  0  0  0  0  0  0  0  0
  102.9460   97.8620  106.0390 O   0  0  0  0  0  0  0  0  0  0  0  0
  102.7830   99.5270  107.7430 C   0  0  0  0  0  0  0  0  0  0  0  0
  102.1680  100.6730  108.0600 C   0  0  0  0  0  0  0  0  0  0  0  0
  101.1560  101.2620  107.3290 N   0  0  0  0  0  0  0  0  0  0  0  0
   97.7970  100.9490  103.9760 N   0  0  0  0  0  0  0  0  0  0  0  0
   94.2850  100.8750  103.1570 N   0  0  0  0  0  0  0  0  0  0  0  0
   95.5170  101.1180  103.4840 C   0  0  0  0  0  0  0  0  0  0  0  0
   96.6340  100.1090  103.6630 C   0  0  0  0  0  0  0  0  0  0  0  0
   96.0410  102.5470  103.7790 C   0  0  0  0  0  0  0  0  0  0  0  0
   97.4070  102.2990  104.4240 C   0  0  0  0  0  0  0  0  0  0  0  0
   95.1290  103.5700  104.4870 C   0  0  0  0  0  0  0  0  0  0  0  0
   96.0320  103.5640  102.6160 C   0  0  0  0  0  0  0  0  0  0  0  0
   95.6670  104.6160  103.5910 N   0  0  0  0  0  0  0  0  0  0  0  0
   94.9770  105.2860  103.2550 H   0  0  0  0  0  0  0  0  0  0  0  0
   94.0980   99.4990  102.9670 O   0  0  0  0  0  0  0  0  0  0  0  0
   92.9060   99.1090  103.6380 C   0  0  0  0  0  0  0  0  0  0  0  0
  100.4810  102.4490  107.8760 C   0  0  0  0  0  0  0  0  0  0  0  0
   99.9000  103.5190  106.9860 C   0  0  0  0  0  0  0  0  0  0  0  0
   98.9870  102.6280  107.7700 C   0  0  0  0  0  0  0  0  0  0  0  0
  103.8390   98.9870  108.6780 C   0  0  0  0  0  0  0  0  0  0  0  0
  104.9780   98.8000  108.1640 O   0  0  0  0  0  0  0  0  0  0  0  0
  103.4270   98.6870  109.8370 O   0  0  0  0  0  0  0  0  0  0  0  0
  1  2  1  0  0  0  0
  2  3  2  0  0  0  0
  3 12  1  0  0  0  0
  4  3  1  0  0  0  0
  4  8  1  0  0  0  0
  5  4  2  0  0  0  0
  6  1  2  0  0  0  0
  6  5  1  0  0  0  0
  7  6  1  0  0  0  0
  8 10  1  0  0  0  0
  9  8  2  0  0  0  0
 10 11  2  0  0  0  0
 10 28  1  0  0  0  0
 12 25  1  0  0  0  0
 12 11  1  0  0  0  0
 13 18  1  0  0  0  0
 13  1  1  0  0  0  0
 14 15  2  0  0  0  0
 15 16  1  0  0  0  0
 15 17  1  0  0  0  0
 16 13  1  0  0  0  0
 17 18  1  0  0  0  0
 17 19  1  0  0  0  0
 20 21  1  0  0  0  0
 20 17  1  0  0  0  0
 21 19  1  0  0  0  0
 22 21  1  0  0  0  0
 23 14  1  0  0  0  0
 23 24  1  0  0  0  0
 26 27  1  0  0  0  0
 26 25  1  0  0  0  0
 27 25  1  0  0  0  0
 28 30  1  0  0  0  0
 29 28  2  0  0  0  0
M  END
>  <minimizedAffinity>
-8.40071011

>  <CNNscore>
0.370702267

>  <CNNaffinity>
6.31060839

$$$$

 OpenBabel08282616143D

 30 34  0  0  0  0  0  0  0  0999 V2000
   98.4550  100.4710  104.7090 C   0  0  0  0  0  0  0  0  0  0  0  0
   99.1100  101.0030  105.7700 N   0  0  0  0  0  0  0  0  0  0  0  0
  100.2740  100.4420  106.2080 C   0  0  0  0  0  0  0  0  0  0  0  0
  100.8150   99.3160  105.5820 C   0  0  0  0  0  0  0  0  0  0  0  0
  100.1640   98.7690  104.4800 C   0  0  0  0  0  0  0  0  0  0  0  0
   98.9860   99.3540  104.0460 C   0  0  0  0  0  0  0  0  0  0  0  0
   98.3720   98.8190  102.9780 F   0  0  0  0  0  0  0  0  0  0  0  0
  102.0710   98.7100  106.0830 C   0  0  0  0  0  0  0  0  0  0  0  0
  102.6010   97.8200  105.4260 O   0  0  0  0  0  0  0  0  0  0  0  0
  102.6130   99.2480  107.3410 C   0  0  0  0  0  0  0  0  0  0  0  0
  102.0370  100.3380  107.8630 C   0  0  0  0  0  0  0  0  0  0  0  0
  100.9600  101.0070  107.3190 N   0  0  0  0  0  0  0  0  0  0  0  0
   97.2840  101.1000  104.3020 N   0  0  0  0  0  0  0  0  0  0  0  0
   95.3760  104.0910  103.6510 N   0  0  0  0  0  0  0  0  0  0  0  0
   95.9650  102.9370  103.7030 C   0  0  0  0  0  0  0  0  0  0  0  0
   97.0350  102.4970  104.6820 C   0  0  0  0  0  0  0  0  0  0  0  0
   95.6600  101.7940  102.7020 C   0  0  0  0  0  0  0  0  0  0  0  0
   96.7970  100.7960  102.9430 C   0  0  0  0  0  0  0  0  0  0  0  0
   95.3460  102.1240  101.2280 C   0  0  0  0  0  0  0  0  0  0  0  0
   94.2370  101.1930  102.7170 C   0  0  0  0  0  0  0  0  0  0  0  0
   94.3200  101.0610  101.2450 N   0  0  0  0  0  0  0  0  0  0  0  0
   93.4600  101.2900  100.7490 H   0  0  0  0  0  0  0  0  0  0  0  0
   95.8610  104.9270  104.6670 O   0  0  0  0  0  0  0  0  0  0  0  0
   95.3160  104.4940  105.9070 C   0  0  0  0  0  0  0  0  0  0  0  0
  100.3460  102.1060  108.0790 C   0  0  0  0  0  0  0  0  0  0  0  0
   99.9890  103.4230  107.4350 C   0  0  0  0  0  0  0  0  0  0  0  0
   98.9020  102.4940  107.8820 C   0  0  0  0  0  0  0  0  0  0  0  0
  103.7550   98.6010  108.0880 C   0  0  0  0  0  0  0  0  0  0  0  0
  104.4830   97.8250  107.4060 O   0  0  0  0  0  0  0  0  0  0  0  0
  103.7820   98.8330  109.3330 O   0  0  0  0  0  0  0  0  0  0  0  0
  1  2  1  0  0  0  0
  2  3  2  0  0  0  0
  3 12  1  0  0  0  0
  4  8  1  0  0  0  0
  4  3  1  0  0  0  0
  5  4  2  0  0  0  0
  6  5  1  0  0  0  0
  6  1  2  0  0  0  0
  7  6  1  0  0  0  0
  8 10  1  0  0  0  0
  9  8  2  0  0  0  0
 10 11  2  0  0  0  0
 10 28  1  0  0  0  0
 12 11  1  0  0  0  0
 12 25  1  0  0  0  0
 13 16  1  0  0  0  0
 13  1  1  0  0  0  0
 14 15  2  0  0  0  0
 14 23  1  0  0  0  0
 15 16  1  0  0  0  0
 17 20  1  0  0  0  0
 17 18  1  0  0  0  0
 17 15  1  0  0  0  0
 18 13  1  0  0  0  0
 19 21  1  0  0  0  0
 19 17  1  0  0  0  0
 21 20  1  0  0  0  0
 22 21  1  0  0  0  0
 23 24  1  0  0  0  0
 26 27  1  0  0  0  0
 26 25  1  0  0  0  0
 27 25  1  0  0  0  0
 28 30  1  0  0  0  0
 29 28  2  0  0  0  0
M  END
>  <minimizedAffinity>
-8.41769505

>  <CNNscore>
0.352078915

>  <CNNaffinity>
6.36228609

$$$$

 OpenBabel08282616143D

 30 34  0  0  0  0  0  0  0  0999 V2000
   99.8240  102.1720  106.5650 C   0  0  0  0  0  0  0  0  0  0  0  0
  100.2060  101.0390  105.9250 N   0  0  0  0  0  0  0  0  0  0  0  0
  101.2080  100.2690  106.4360 C   0  0  0  0  0  0  0  0  0  0  0  0
  101.8610  100.6230  107.6190 C   0  0  0  0  0  0  0  0  0  0  0  0
  101.4700  101.7720  108.2980 C   0  0  0  0  0  0  0  0  0  0  0  0
  100.4470  102.5410  107.7670 C   0  0  0  0  0  0  0  0  0  0  0  0
  100.0750  103.6450  108.4360 F   0  0  0  0  0  0  0  0  0  0  0  0
  102.9610   99.7820  108.1490 C   0  0  0  0  0  0  0  0  0  0  0  0
  103.4120  100.0310  109.2620 O   0  0  0  0  0  0  0  0  0  0  0  0
  103.4200   98.6730  107.2970 C   0  0  0  0  0  0  0  0  0  0  0  0
  102.7250   98.3990  106.1870 C   0  0  0  0  0  0  0  0  0  0  0  0
  101.6010   99.0790  105.7620 N   0  0  0  0  0  0  0  0  0  0  0  0
   98.7850  102.9050  106.0020 N   0  0  0  0  0  0  0  0  0  0  0  0
   96.0010  103.1850  103.7260 N   0  0  0  0  0  0  0  0  0  0  0  0
   96.8760  103.2000  104.6830 C   0  0  0  0  0  0  0  0  0  0  0  0
   98.2130  102.4890  104.7140 C   0  0  0  0  0  0  0  0  0  0  0  0
   96.6530  103.9680  106.0110 C   0  0  0  0  0  0  0  0  0  0  0  0
   97.7610  103.4330  106.9220 C   0  0  0  0  0  0  0  0  0  0  0  0
   95.2410  104.0460  106.6290 C   0  0  0  0  0  0  0  0  0  0  0  0
   96.5440  105.5080  105.9350 C   0  0  0  0  0  0  0  0  0  0  0  0
   95.5200  105.4480  107.0020 N   0  0  0  0  0  0  0  0  0  0  0  0
   94.7370  106.0870  106.8750 H   0  0  0  0  0  0  0  0  0  0  0  0
   96.4640  102.4000  102.6600 O   0  0  0  0  0  0  0  0  0  0  0  0
   95.5070  102.4560  101.6090 C   0  0  0  0  0  0  0  0  0  0  0  0
  101.0260   98.7540  104.4490 C   0  0  0  0  0  0  0  0  0  0  0  0
   99.5970   99.0880  104.0970 C   0  0  0  0  0  0  0  0  0  0  0  0
  100.7180   99.8260  103.4330 C   0  0  0  0  0  0  0  0  0  0  0  0
  104.6610   97.8660  107.5960 C   0  0  0  0  0  0  0  0  0  0  0  0
  105.3070   98.2170  108.6230 O   0  0  0  0  0  0  0  0  0  0  0  0
  104.9620   97.0010  106.7200 O   0  0  0  0  0  0  0  0  0  0  0  0
  1  6  1  0  0  0  0
  2  3  1  0  0  0  0
  2  1  2  0  0  0  0
  3  4  2  0  0  0  0
  4  8  1  0  0  0  0
  4  5  1  0  0  0  0
  6  5  2  0  0  0  0
  6  7  1  0  0  0  0
  8  9  2  0  0  0  0
 10 28  1  0  0  0  0
 10  8  1  0  0  0  0
 11 10  2  0  0  0  0
 12 11  1  0  0  0  0
 12  3  1  0  0  0  0
 13  1  1  0  0  0  0
 13 18  1  0  0  0  0
 14 15  2  0  0  0  0
 15 16  1  0  0  0  0
 15 17  1  0  0  0  0
 16 13  1  0  0  0  0
 17 19  1  0  0  0  0
 17 18  1  0  0  0  0
 19 21  1  0  0  0  0
 20 17  1  0  0  0  0
 20 21  1  0  0  0  0
 22 21  1  0  0  0  0
 23 14  1  0  0  0  0
 24 23  1  0  0  0  0
 25 12  1  0  0  0  0
 26 25  1  0  0  0  0
 27 26  1  0  0  0  0
 27 25  1  0  0  0  0
 28 29  1  0  0  0  0
 30 28  2  0  0  0  0
M  END
>  <minimizedAffinity>
-8.598876

>  <CNNscore>
0.344747543

>  <CNNaffinity>
6.4596324

$$$$

 OpenBabel08282616143D

 30 34  0  0  0  0  0  0  0  0999 V2000
   97.3740  102.9270  105.6980 C   0  0  0  0  0  0  0  0  0  0  0  0
   98.5640  103.3900  105.2410 N   0  0  0  0  0  0  0  0  0  0  0  0
   99.0490  104.5850  105.6850 C   0  0  0  0  0  0  0  0  0  0  0  0
   98.3410  105.3560  106.6110 C   0  0  0  0  0  0  0  0  0  0  0  0
   97.1270  104.8860  107.1030 C   0  0  0  0  0  0  0  0  0  0  0  0
   96.6510  103.6680  106.6450 C   0  0  0  0  0  0  0  0  0  0  0  0
   95.4810  103.2250  107.1340 F   0  0  0  0  0  0  0  0  0  0  0  0
   98.8760  106.6600  107.0670 C   0  0  0  0  0  0  0  0  0  0  0  0
   98.3120  107.2410  107.9880 O   0  0  0  0  0  0  0  0  0  0  0  0
  100.0820  107.1590  106.3870 C   0  0  0  0  0  0  0  0  0  0  0  0
  100.7020  106.3460  105.5220 C   0  0  0  0  0  0  0  0  0  0  0  0
  100.3000  105.0650  105.2050 N   0  0  0  0  0  0  0  0  0  0  0  0
   96.9430  101.6950  105.2200 N   0  0  0  0  0  0  0  0  0  0  0  0
   97.4480   98.1590  104.7180 N   0  0  0  0  0  0  0  0  0  0  0  0
   97.0570   99.3750  104.9410 C   0  0  0  0  0  0  0  0  0  0  0  0
   97.9180  100.6220  104.9860 C   0  0  0  0  0  0  0  0  0  0  0  0
   95.5790   99.7410  105.2340 C   0  0  0  0  0  0  0  0  0  0  0  0
   95.6640  101.1820  105.7460 C   0  0  0  0  0  0  0  0  0  0  0  0
   94.6950   98.7780  106.0540 C   0  0  0  0  0  0  0  0  0  0  0  0
   94.5470   99.4960  104.1110 C   0  0  0  0  0  0  0  0  0  0  0  0
   93.5720   99.0950  105.1480 N   0  0  0  0  0  0  0  0  0  0  0  0
   92.9880   98.2980  104.8980 H   0  0  0  0  0  0  0  0  0  0  0  0
   98.8320   98.1290  104.5010 O   0  0  0  0  0  0  0  0  0  0  0  0
   99.0740   98.2950  103.1090 C   0  0  0  0  0  0  0  0  0  0  0  0
  101.0000  104.3430  104.1330 C   0  0  0  0  0  0  0  0  0  0  0  0
  102.4860  104.4860  103.9100 C   0  0  0  0  0  0  0  0  0  0  0  0
  101.9330  103.1950  104.4300 C   0  0  0  0  0  0  0  0  0  0  0  0
  100.6210  108.5560  106.5850 C   0  0  0  0  0  0  0  0  0  0  0  0
   99.8050  109.4920  106.3540 O   0  0  0  0  0  0  0  0  0  0  0  0
  101.8560  108.6210  106.8570 O   0  0  0  0  0  0  0  0  0  0  0  0
  1  6  1  0  0  0  0
  2  3  1  0  0  0  0
  2  1  2  0  0  0  0
  3  4  2  0  0  0  0
  4  8  1  0  0  0  0
  4  5  1  0  0  0  0
  6  5  2  0  0  0  0
  6  7  1  0  0  0  0
  8  9  2  0  0  0  0
 10 28  1  0  0  0  0
 10  8  1  0  0  0  0
 11 10  2  0  0  0  0
 12 11  1  0  0  0  0
 12  3  1  0  0  0  0
 13  1  1  0  0  0  0
 13 18  1  0  0  0  0
 14 15  2  0  0  0  0
 15 16  1  0  0  0  0
 15 17  1  0  0  0  0
 16 13  1  0  0  0  0
 17 18  1  0  0  0  0
 17 19  1  0  0  0  0
 20 21  1  0  0  0  0
 20 17  1  0  0  0  0
 21 19  1  0  0  0  0
 22 21  1  0  0  0  0
 23 14  1  0  0  0  0
 24 23  1  0  0  0  0
 25 27  1  0  0  0  0
 25 12  1  0  0  0  0
 26 25  1  0  0  0  0
 26 27  1  0  0  0  0
 28 30  1  0  0  0  0
 29 28  2  0  0  0  0
M  END
>  <minimizedAffinity>
-7.45875978

>  <CNNscore>
0.336705178

>  <CNNaffinity>
6.1665535

$$$$

 OpenBabel08282616143D

 30 34  0  0  0  0  0  0  0  0999 V2000
  100.5990  102.6050  106.9080 C   0  0  0  0  0  0  0  0  0  0  0  0
  100.8350  101.5140  106.1380 N   0  0  0  0  0  0  0  0  0  0  0  0
  101.6400  100.5130  106.5960 C   0  0  0  0  0  0  0  0  0  0  0  0
  102.2370  100.5850  107.8570 C   0  0  0  0  0  0  0  0  0  0  0  0
  101.9910  101.6890  108.6670 C   0  0  0  0  0  0  0  0  0  0  0  0
  101.1670  102.6950  108.1880 C   0  0  0  0  0  0  0  0  0  0  0  0
  100.9340  103.7520  108.9830 F   0  0  0  0  0  0  0  0  0  0  0  0
  103.1230   99.4960  108.3310 C   0  0  0  0  0  0  0  0  0  0  0  0
  103.5100   99.5120  109.4950 O   0  0  0  0  0  0  0  0  0  0  0  0
  103.4580   98.4410  107.3600 C   0  0  0  0  0  0  0  0  0  0  0  0
  102.8270   98.4450  106.1800 C   0  0  0  0  0  0  0  0  0  0  0  0
  101.8800   99.3690  105.7860 N   0  0  0  0  0  0  0  0  0  0  0  0
   99.7560  103.5820  106.3900 N   0  0  0  0  0  0  0  0  0  0  0  0
   96.4990  105.1060  106.1080 N   0  0  0  0  0  0  0  0  0  0  0  0
   97.7470  104.7650  106.2100 C   0  0  0  0  0  0  0  0  0  0  0  0
   98.3030  103.3670  106.3910 C   0  0  0  0  0  0  0  0  0  0  0  0
   98.9030  105.7970  106.1850 C   0  0  0  0  0  0  0  0  0  0  0  0
  100.1130  104.9870  106.6590 C   0  0  0  0  0  0  0  0  0  0  0  0
   98.7130  107.1830  106.8370 C   0  0  0  0  0  0  0  0  0  0  0  0
   99.1130  106.6020  104.8830 C   0  0  0  0  0  0  0  0  0  0  0  0
   99.4670  107.7760  105.7120 N   0  0  0  0  0  0  0  0  0  0  0  0
   99.0980  108.6620  105.3720 H   0  0  0  0  0  0  0  0  0  0  0  0
   95.6810  103.9700  106.1780 O   0  0  0  0  0  0  0  0  0  0  0  0
   95.0910  103.9190  107.4710 C   0  0  0  0  0  0  0  0  0  0  0  0
  101.3760   99.3280  104.4050 C   0  0  0  0  0  0  0  0  0  0  0  0
   99.9800   98.8610  104.0770 C   0  0  0  0  0  0  0  0  0  0  0  0
  100.3380  100.3050  103.9130 C   0  0  0  0  0  0  0  0  0  0  0  0
  104.5100   97.3890  107.6190 C   0  0  0  0  0  0  0  0  0  0  0  0
  105.0920   96.9360  106.5930 O   0  0  0  0  0  0  0  0  0  0  0  0
  104.6060   97.0120  108.8240 O   0  0  0  0  0  0  0  0  0  0  0  0
  1  6  1  0  0  0  0
  2  3  1  0  0  0  0
  2  1  2  0  0  0  0
  3  4  2  0  0  0  0
  4  8  1  0  0  0  0
  4  5  1  0  0  0  0
  6  5  2  0  0  0  0
  6  7  1  0  0  0  0
  8  9  2  0  0  0  0
 10 28  1  0  0  0  0
 10  8  1  0  0  0  0
 11 10  2  0  0  0  0
 12 11  1  0  0  0  0
 12  3  1  0  0  0  0
 13 16  1  0  0  0  0
 13 18  1  0  0  0  0
 13  1  1  0  0  0  0
 14 23  1  0  0  0  0
 14 15  2  0  0  0  0
 15 16  1  0  0  0  0
 17 15  1  0  0  0  0
 17 18  1  0  0  0  0
 17 19  1  0  0  0  0
 20 21  1  0  0  0  0
 20 17  1  0  0  0  0
 21 19  1  0  0  0  0
 22 21  1  0  0  0  0
 23 24  1  0  0  0  0
 25 12  1  0  0  0  0
 26 25  1  0  0  0  0
 27 26  1  0  0  0  0
 27 25  1  0  0  0  0
 28 30  1  0  0  0  0
 29 28  2  0  0  0  0
M  END
>  <minimizedAffinity>
-7.02600431

>  <CNNscore>
0.300837129

>  <CNNaffinity>
6.34197044

$$$$

 OpenBabel08282616143D

 30 34  0  0  0  0  0  0  0  0999 V2000
   97.6470  101.8070  105.1090 C   0  0  0  0  0  0  0  0  0  0  0  0
   98.4310  100.8090  104.6320 N   0  0  0  0  0  0  0  0  0  0  0  0
   99.5110  100.3850  105.3500 C   0  0  0  0  0  0  0  0  0  0  0  0
   99.8340  100.9620  106.5810 C   0  0  0  0  0  0  0  0  0  0  0  0
   99.0290  101.9740  107.0920 C   0  0  0  0  0  0  0  0  0  0  0  0
   97.9340  102.3900  106.3520 C   0  0  0  0  0  0  0  0  0  0  0  0
   97.1620  103.3650  106.8610 F   0  0  0  0  0  0  0  0  0  0  0  0
  101.0210  100.4990  107.3370 C   0  0  0  0  0  0  0  0  0  0  0  0
  101.1950  100.9150  108.4780 O   0  0  0  0  0  0  0  0  0  0  0  0
  101.9080   99.5380  106.6610 C   0  0  0  0  0  0  0  0  0  0  0  0
  101.5110   99.0280  105.4890 C   0  0  0  0  0  0  0  0  0  0  0  0
  100.3280   99.3340  104.8470 N   0  0  0  0  0  0  0  0  0  0  0  0
   96.5520  102.1820  104.3380 N   0  0  0  0  0  0  0  0  0  0  0  0
   94.9350  104.4640  102.0610 N   0  0  0  0  0  0  0  0  0  0  0  0
   95.4220  103.4850  102.7590 C   0  0  0  0  0  0  0  0  0  0  0  0
   96.4070  103.5780  103.9070 C   0  0  0  0  0  0  0  0  0  0  0  0
   95.0650  102.0010  102.4850 C   0  0  0  0  0  0  0  0  0  0  0  0
   96.1010  101.2290  103.3070 C   0  0  0  0  0  0  0  0  0  0  0  0
   94.8450  101.5160  101.0370 C   0  0  0  0  0  0  0  0  0  0  0  0
   93.5960  101.5700  102.6970 C   0  0  0  0  0  0  0  0  0  0  0  0
   93.7320  100.6760  101.5260 N   0  0  0  0  0  0  0  0  0  0  0  0
   92.9170  100.6490  100.9150 H   0  0  0  0  0  0  0  0  0  0  0  0
   95.4450  105.6860  102.5220 O   0  0  0  0  0  0  0  0  0  0  0  0
   95.5290  106.5840  101.4220 C   0  0  0  0  0  0  0  0  0  0  0  0
  100.0920   98.8020  103.4970 C   0  0  0  0  0  0  0  0  0  0  0  0
   99.6860   99.6900  102.3470 C   0  0  0  0  0  0  0  0  0  0  0  0
  101.0490   99.0700  102.3630 C   0  0  0  0  0  0  0  0  0  0  0  0
  103.2580   99.1390  107.2070 C   0  0  0  0  0  0  0  0  0  0  0  0
  103.5360   97.9100  107.1310 O   0  0  0  0  0  0  0  0  0  0  0  0
  103.9050  100.0710  107.7710 O   0  0  0  0  0  0  0  0  0  0  0  0
  1  6  1  0  0  0  0
  2  1  2  0  0  0  0
  2  3  1  0  0  0  0
  3  4  2  0  0  0  0
  4  5  1  0  0  0  0
  4  8  1  0  0  0  0
  6  7  1  0  0  0  0
  6  5  2  0  0  0  0
  8  9  2  0  0  0  0
 10 28  1  0  0  0  0
 10  8  1  0  0  0  0
 11 10  2  0  0  0  0
 12  3  1  0  0  0  0
 12 11  1  0  0  0  0
 13  1  1  0  0  0  0
 14 23  1  0  0  0  0
 14 15  2  0  0  0  0
 15 16  1  0  0  0  0
 16 13  1  0  0  0  0
 17 20  1  0  0  0  0
 17 15  1  0  0  0  0
 17 18  1  0  0  0  0
 18 13  1  0  0  0  0
 19 21  1  0  0  0  0
 19 17  1  0  0  0  0
 21 20  1  0  0  0  0
 22 21  1  0  0  0  0
 24 23  1  0  0  0  0
 25 12  1  0  0  0  0
 26 27  1  0  0  0  0
 26 25  1  0  0  0  0
 27 25  1  0  0  0  0
 28 30  1  0  0  0  0
 29 28  2  0  0  0  0
M  END
>  <minimizedAffinity>
-7.83071613

>  <CNNscore>
0.279442906

>  <CNNaffinity>
5.87392807

$$$$

 OpenBabel08282616143D

 30 34  0  0  0  0  0  0  0  0999 V2000
   99.7420  102.8000  105.5980 C   0  0  0  0  0  0  0  0  0  0  0  0
  100.4930  103.7810  105.0390 N   0  0  0  0  0  0  0  0  0  0  0  0
  100.4050  105.0600  105.5050 C   0  0  0  0  0  0  0  0  0  0  0  0
   99.5480  105.3890  106.5580 C   0  0  0  0  0  0  0  0  0  0  0  0
   98.7850  104.3900  107.1550 C   0  0  0  0  0  0  0  0  0  0  0  0
   98.8890  103.0960  106.6720 C   0  0  0  0  0  0  0  0  0  0  0  0
   98.1510  102.1420  107.2610 F   0  0  0  0  0  0  0  0  0  0  0  0
   99.4530  106.7870  107.0390 C   0  0  0  0  0  0  0  0  0  0  0  0
   98.8110  107.0210  108.0580 O   0  0  0  0  0  0  0  0  0  0  0  0
  100.1710  107.8090  106.2590 C   0  0  0  0  0  0  0  0  0  0  0  0
  100.9800  107.4000  105.2740 C   0  0  0  0  0  0  0  0  0  0  0  0
  101.1980  106.0850  104.9180 N   0  0  0  0  0  0  0  0  0  0  0  0
   99.8910  101.5140  105.0890 N   0  0  0  0  0  0  0  0  0  0  0  0
  101.2400   98.1760  105.3050 N   0  0  0  0  0  0  0  0  0  0  0  0
  100.5720   99.2780  105.1530 C   0  0  0  0  0  0  0  0  0  0  0  0
  101.0100  100.6760  105.5380 C   0  0  0  0  0  0  0  0  0  0  0  0
   99.1460   99.3170  104.5480 C   0  0  0  0  0  0  0  0  0  0  0  0
   98.6590  100.7320  104.8730 C   0  0  0  0  0  0  0  0  0  0  0  0
   98.1530   98.1720  104.8390 C   0  0  0  0  0  0  0  0  0  0  0  0
   98.9840   98.8840  103.0730 C   0  0  0  0  0  0  0  0  0  0  0  0
   97.6910   98.2640  103.4380 N   0  0  0  0  0  0  0  0  0  0  0  0
   97.5080   97.3670  102.9900 H   0  0  0  0  0  0  0  0  0  0  0  0
  102.4860   98.4440  105.8890 O   0  0  0  0  0  0  0  0  0  0  0  0
  102.3610   98.3120  107.3000 C   0  0  0  0  0  0  0  0  0  0  0  0
  102.0050  105.7950  103.7230 C   0  0  0  0  0  0  0  0  0  0  0  0
  103.4460  106.2260  103.6080 C   0  0  0  0  0  0  0  0  0  0  0  0
  103.1140  104.7720  103.7470 C   0  0  0  0  0  0  0  0  0  0  0  0
   99.9990  109.2920  106.4900 C   0  0  0  0  0  0  0  0  0  0  0  0
   98.9690  109.6270  107.1400 O   0  0  0  0  0  0  0  0  0  0  0  0
  100.8550  110.0270  105.9140 O   0  0  0  0  0  0  0  0  0  0  0  0
  1  6  1  0  0  0  0
  2  3  1  0  0  0  0
  2  1  2  0  0  0  0
  3  4  2  0  0  0  0
  4  8  1  0  0  0  0
  4  5  1  0  0  0  0
  6  5  2  0  0  0  0
  6  7  1  0  0  0  0
  8  9  2  0  0  0  0
 10 28  1  0  0  0  0
 10  8  1  0  0  0  0
 11 10  2  0  0  0  0
 12 11  1  0  0  0  0
 12  3  1  0  0  0  0
 13 16  1  0  0  0  0
 13  1  1  0  0  0  0
 14 23  1  0  0  0  0
 15 14  2  0  0  0  0
 15 16  1  0  0  0  0
 17 19  1  0  0  0  0
 17 18  1  0  0  0  0
 17 15  1  0  0  0  0
 18 13  1  0  0  0  0
 20 21  1  0  0  0  0
 20 17  1  0  0  0  0
 21 19  1  0  0  0  0
 22 21  1  0  0  0  0
 23 24  1  0  0  0  0
 25 27  1  0  0  0  0
 25 12  1  0  0  0  0
 26 25  1  0  0  0  0
 26 27  1  0  0  0  0
 28 29  1  0  0  0  0
 30 28  2  0  0  0  0
M  END
>  <minimizedAffinity>
-6.87891579

>  <CNNscore>
0.279087394

>  <CNNaffinity>
6.36660814

$$$$

 OpenBabel08282616143D

 30 34  0  0  0  0  0  0  0  0999 V2000
   97.6500  100.2930  103.8390 C   0  0  0  0  0  0  0  0  0  0  0  0
   96.6540  101.1980  103.6690 N   0  0  0  0  0  0  0  0  0  0  0  0
   95.5370  100.8620  102.9640 C   0  0  0  0  0  0  0  0  0  0  0  0
   95.3900   99.5910  102.4020 C   0  0  0  0  0  0  0  0  0  0  0  0
   96.3950   98.6450  102.5820 C   0  0  0  0  0  0  0  0  0  0  0  0
   97.5210   99.0020  103.3060 C   0  0  0  0  0  0  0  0  0  0  0  0
   98.4800   98.0770  103.4770 F   0  0  0  0  0  0  0  0  0  0  0  0
   94.1770   99.2500  101.6230 C   0  0  0  0  0  0  0  0  0  0  0  0
   94.0060   98.0880  101.2720 O   0  0  0  0  0  0  0  0  0  0  0  0
   93.2350  100.3470  101.3450 C   0  0  0  0  0  0  0  0  0  0  0  0
   93.4480  101.5290  101.9370 C   0  0  0  0  0  0  0  0  0  0  0  0
   94.4930  101.8140  102.7920 N   0  0  0  0  0  0  0  0  0  0  0  0
   98.7550  100.6930  104.5830 N   0  0  0  0  0  0  0  0  0  0  0  0
  102.1030  100.1300  105.8020 N   0  0  0  0  0  0  0  0  0  0  0  0
  100.9620  100.5420  105.3420 C   0  0  0  0  0  0  0  0  0  0  0  0
   99.7510   99.6980  105.0010 C   0  0  0  0  0  0  0  0  0  0  0  0
  100.6710  102.0340  105.0360 C   0  0  0  0  0  0  0  0  0  0  0  0
   99.3710  101.9850  104.2280 C   0  0  0  0  0  0  0  0  0  0  0  0
  101.7880  102.9370  104.4730 C   0  0  0  0  0  0  0  0  0  0  0  0
  100.6750  103.0200  106.2250 C   0  0  0  0  0  0  0  0  0  0  0  0
  101.2900  104.0300  105.3340 N   0  0  0  0  0  0  0  0  0  0  0  0
  102.0170  104.5940  105.7700 H   0  0  0  0  0  0  0  0  0  0  0  0
  102.0820   98.7380  105.9660 O   0  0  0  0  0  0  0  0  0  0  0  0
  102.8780   98.4050  107.0970 C   0  0  0  0  0  0  0  0  0  0  0  0
   94.6770  103.1970  103.2550 C   0  0  0  0  0  0  0  0  0  0  0  0
   95.2810  103.5170  104.6000 C   0  0  0  0  0  0  0  0  0  0  0  0
   96.0460  103.8230  103.3490 C   0  0  0  0  0  0  0  0  0  0  0  0
   92.0720  100.2110  100.3910 C   0  0  0  0  0  0  0  0  0  0  0  0
   91.6490   99.0340  100.2110 O   0  0  0  0  0  0  0  0  0  0  0  0
   91.7290  101.2810   99.8070 O   0  0  0  0  0  0  0  0  0  0  0  0
  1 13  1  0  0  0  0
  2  1  1  0  0  0  0
  3  2  2  0  0  0  0
  4  5  2  0  0  0  0
  4  3  1  0  0  0  0
  5  6  1  0  0  0  0
  6  7  1  0  0  0  0
  6  1  2  0  0  0  0
  8  4  1  0  0  0  0
  9  8  2  0  0  0  0
 10  8  1  0  0  0  0
 10 11  2  0  0  0  0
 11 12  1  0  0  0  0
 12  3  1  0  0  0  0
 12 25  1  0  0  0  0
 13 16  1  0  0  0  0
 14 23  1  0  0  0  0
 15 14  2  0  0  0  0
 16 15  1  0  0  0  0
 17 15  1  0  0  0  0
 17 20  1  0  0  0  0
 18 13  1  0  0  0  0
 18 17  1  0  0  0  0
 19 17  1  0  0  0  0
 19 21  1  0  0  0  0
 21 22  1  0  0  0  0
 21 20  1  0  0  0  0
 23 24  1  0  0  0  0
 25 27  1  0  0  0  0
 25 26  1  0  0  0  0
 27 26  1  0  0  0  0
 28 10  1  0  0  0  0
 29 28  1  0  0  0  0
 30 28  2  0  0  0  0
M  END
>  <minimizedAffinity>
-6.95408154

>  <CNNscore>
0.27851221

>  <CNNaffinity>
6.00027418

$$$$
