
 OpenBabel08282609063D

 29 31  0  0  0  0  0  0  0  0999 V2000
   99.0500  104.3680  107.1310 C   0  0  0  0  0  0  0  0  0  0  0  0
   98.2650  105.6280  107.5040 C   0  0  0  0  0  0  0  0  0  0  0  0
   99.1410  106.8780  107.6290 C   0  0  0  0  0  0  0  0  0  0  0  0
   99.8640  107.3130  106.3520 C   0  0  0  0  0  0  0  0  0  0  0  0
  100.2460  108.7850  106.3410 C   0  0  0  0  0  0  0  0  0  0  0  0
   98.2000  103.1100  107.3230 C   0  0  0  0  0  0  0  0  0  0  0  0
   98.4410  102.0990  106.2260 C   0  0  0  0  0  0  0  0  0  0  0  0
   97.5610  102.0490  105.1310 C   0  0  0  0  0  0  0  0  0  0  0  0
   99.5410  101.2230  106.2610 C   0  0  0  0  0  0  0  0  0  0  0  0
   97.7760  101.1320  104.0950 C   0  0  0  0  0  0  0  0  0  0  0  0
  100.3780  101.3130  107.3470 O   0  0  0  0  0  0  0  0  0  0  0  0
   99.7430  100.3150  105.2200 C   0  0  0  0  0  0  0  0  0  0  0  0
   98.8680  100.2660  104.1280 C   0  0  0  0  0  0  0  0  0  0  0  0
  101.4610  100.4730  107.4190 C   0  0  0  0  0  0  0  0  0  0  0  0
  100.8890   99.3950  105.2840 C   0  0  0  0  0  0  0  0  0  0  0  0
  102.2730  100.6130  108.5410 C   0  0  0  0  0  0  0  0  0  0  0  0
  101.7710   99.5160  106.4550 C   0  0  0  0  0  0  0  0  0  0  0  0
  101.0700   98.5730  104.3950 O   0  0  0  0  0  0  0  0  0  0  0  0
  103.3920   99.7940  108.6960 C   0  0  0  0  0  0  0  0  0  0  0  0
  102.8910   98.6920  106.6060 C   0  0  0  0  0  0  0  0  0  0  0  0
  103.7190   98.8210  107.7350 C   0  0  0  0  0  0  0  0  0  0  0  0
   96.6400  101.0670  102.7250 S   0  0  2  0  0  0  0  0  0  0  0  0
   97.2850  100.1310  101.6880 N   0  0  0  0  0  0  0  0  0  0  0  0
   96.2530  102.4360  102.4400 O   0  0  0  0  0  0  0  0  0  0  0  0
   95.2050  100.2650  103.3900 C   0  0  0  0  0  0  0  0  0  0  0  0
   98.1630  100.5210  101.3390 H   0  0  0  0  0  0  0  0  0  0  0  0
  104.9360   97.9340  107.9180 C   0  0  0  0  0  0  0  0  0  0  0  0
  105.0750   96.9670  107.1080 O   0  0  0  0  0  0  0  0  0  0  0  0
  105.7230   98.2310  108.8720 O   0  0  0  0  0  0  0  0  0  0  0  0
  1  6  1  0  0  0  0
  1  2  1  0  0  0  0
  2  3  1  0  0  0  0
  4  3  1  0  0  0  0
  5  4  1  0  0  0  0
  7  9  1  0  0  0  0
  7  6  1  0  0  0  0
  8  7  2  0  0  0  0
  9 11  1  0  0  0  0
 10 13  2  0  0  0  0
 10  8  1  0  0  0  0
 11 14  1  0  0  0  0
 12 15  1  0  0  0  0
 12  9  2  0  0  0  0
 13 12  1  0  0  0  0
 14 16  1  0  0  0  0
 15 17  1  0  0  0  0
 16 19  2  0  0  0  0
 17 20  1  0  0  0  0
 17 14  2  0  0  0  0
 18 15  2  0  0  0  0
 20 21  2  0  0  0  0
 21 27  1  0  0  0  0
 21 19  1  0  0  0  0
 22 25  1  1  0  0  0
 22 10  1  0  0  0  0
 23 22  1  0  0  0  0
 24 22  1  0  0  0  0
 26 23  1  0  0  0  0
 27 29  1  0  0  0  0
 28 27  2  0  0  0  0
M  END
>  <minimizedAffinity>
-9.35648918

>  <CNNscore>
0.644049704

>  <CNNaffinity>
7.01240778

$$$$

 OpenBabel08282609063D

 29 31  0  0  0  0  0  0  0  0999 V2000
   99.1490  105.2120  105.3720 C   0  0  0  0  0  0  0  0  0  0  0  0
   99.4760  106.3150  106.3820 C   0  0  0  0  0  0  0  0  0  0  0  0
   98.5690  106.3000  107.6150 C   0  0  0  0  0  0  0  0  0  0  0  0
   99.2800  106.1400  108.9610 C   0  0  0  0  0  0  0  0  0  0  0  0
   99.5070  104.6910  109.3620 C   0  0  0  0  0  0  0  0  0  0  0  0
   98.2550  104.1380  105.9970 C   0  0  0  0  0  0  0  0  0  0  0  0
   98.3140  102.8410  105.2230 C   0  0  0  0  0  0  0  0  0  0  0  0
   97.4210  102.6320  104.1590 C   0  0  0  0  0  0  0  0  0  0  0  0
   99.2610  101.8460  105.5280 C   0  0  0  0  0  0  0  0  0  0  0  0
   97.4710  101.4450  103.4190 C   0  0  0  0  0  0  0  0  0  0  0  0
  100.1190  102.0970  106.5720 O   0  0  0  0  0  0  0  0  0  0  0  0
   99.3000  100.6680  104.7790 C   0  0  0  0  0  0  0  0  0  0  0  0
   98.4120  100.4610  103.7180 C   0  0  0  0  0  0  0  0  0  0  0  0
  101.0550  101.1490  106.9000 C   0  0  0  0  0  0  0  0  0  0  0  0
  100.2860   99.6320  105.1240 C   0  0  0  0  0  0  0  0  0  0  0  0
  101.8970  101.4610  107.9650 C   0  0  0  0  0  0  0  0  0  0  0  0
  101.1950   99.9280  106.2430 C   0  0  0  0  0  0  0  0  0  0  0  0
  100.3200   98.5810  104.4980 O   0  0  0  0  0  0  0  0  0  0  0  0
  102.8730  100.5490  108.3700 C   0  0  0  0  0  0  0  0  0  0  0  0
  102.1700   99.0110  106.6450 C   0  0  0  0  0  0  0  0  0  0  0  0
  103.0270   99.3120  107.7190 C   0  0  0  0  0  0  0  0  0  0  0  0
   96.3180  101.1880  102.0860 S   0  0  2  0  0  0  0  0  0  0  0  0
   97.0490  100.2990  101.0640 N   0  0  0  0  0  0  0  0  0  0  0  0
   95.7570  102.4870  101.7640 O   0  0  0  0  0  0  0  0  0  0  0  0
   95.0110  100.2420  102.8210 C   0  0  0  0  0  0  0  0  0  0  0  0
   97.8620  100.7790  100.6760 H   0  0  0  0  0  0  0  0  0  0  0  0
  104.0890   98.3290  108.1720 C   0  0  0  0  0  0  0  0  0  0  0  0
  104.3950   98.3330  109.4040 O   0  0  0  0  0  0  0  0  0  0  0  0
  104.5920   97.5770  107.2790 O   0  0  0  0  0  0  0  0  0  0  0  0
  1  6  1  0  0  0  0
  1  2  1  0  0  0  0
  2  3  1  0  0  0  0
  3  4  1  0  0  0  0
  4  5  1  0  0  0  0
  7  9  1  0  0  0  0
  7  6  1  0  0  0  0
  8  7  2  0  0  0  0
  9 11  1  0  0  0  0
 10 13  2  0  0  0  0
 10  8  1  0  0  0  0
 11 14  1  0  0  0  0
 12 15  1  0  0  0  0
 12  9  2  0  0  0  0
 13 12  1  0  0  0  0
 14 16  1  0  0  0  0
 15 17  1  0  0  0  0
 16 19  2  0  0  0  0
 17 20  1  0  0  0  0
 17 14  2  0  0  0  0
 18 15  2  0  0  0  0
 20 21  2  0  0  0  0
 21 27  1  0  0  0  0
 21 19  1  0  0  0  0
 22 25  1  1  0  0  0
 22 10  1  0  0  0  0
 23 22  1  0  0  0  0
 24 22  1  0  0  0  0
 26 23  1  0  0  0  0
 27 28  1  0  0  0  0
 29 27  2  0  0  0  0
M  END
>  <minimizedAffinity>
-9.00460434

>  <CNNscore>
0.591238737

>  <CNNaffinity>
6.92782164

$$$$

 OpenBabel08282609063D

 29 31  0  0  0  0  0  0  0  0999 V2000
  101.4020  100.2790  101.0200 C   0  0  0  0  0  0  0  0  0  0  0  0
  100.8460  100.0160   99.6180 C   0  0  0  0  0  0  0  0  0  0  0  0
  101.6550  100.6910   98.5060 C   0  0  0  0  0  0  0  0  0  0  0  0
  100.9090  100.9220   97.1900 C   0  0  0  0  0  0  0  0  0  0  0  0
  101.8070  100.8660   95.9640 C   0  0  0  0  0  0  0  0  0  0  0  0
  100.9710   99.1840  101.9990 C   0  0  0  0  0  0  0  0  0  0  0  0
  100.4610   99.7640  103.2980 C   0  0  0  0  0  0  0  0  0  0  0  0
  101.2880   99.7420  104.4340 C   0  0  0  0  0  0  0  0  0  0  0  0
   99.1850  100.3510  103.3920 C   0  0  0  0  0  0  0  0  0  0  0  0
  100.8410  100.2890  105.6430 C   0  0  0  0  0  0  0  0  0  0  0  0
   98.4150  100.3570  102.2530 O   0  0  0  0  0  0  0  0  0  0  0  0
   98.7550  100.8950  104.6030 C   0  0  0  0  0  0  0  0  0  0  0  0
   99.5790  100.8740  105.7340 C   0  0  0  0  0  0  0  0  0  0  0  0
   97.1640  100.9180  102.3060 C   0  0  0  0  0  0  0  0  0  0  0  0
   97.4110  101.4880  104.6850 C   0  0  0  0  0  0  0  0  0  0  0  0
   96.4320  100.8970  101.1210 C   0  0  0  0  0  0  0  0  0  0  0  0
   96.6090  101.4850  103.4510 C   0  0  0  0  0  0  0  0  0  0  0  0
   97.0030  101.9460  105.7440 O   0  0  0  0  0  0  0  0  0  0  0  0
   95.1470  101.4400  101.0870 C   0  0  0  0  0  0  0  0  0  0  0  0
   95.3220  102.0300  103.4240 C   0  0  0  0  0  0  0  0  0  0  0  0
   94.5710  102.0140  102.2340 C   0  0  0  0  0  0  0  0  0  0  0  0
  101.8930  100.2340  107.0780 S   0  0  2  0  0  0  0  0  0  0  0  0
  102.7870   98.9940  106.8970 N   0  0  0  0  0  0  0  0  0  0  0  0
  101.0380  100.4450  108.2310 O   0  0  0  0  0  0  0  0  0  0  0  0
  102.9050  101.6830  106.9290 C   0  0  0  0  0  0  0  0  0  0  0  0
  102.2300   98.1380  106.8940 H   0  0  0  0  0  0  0  0  0  0  0  0
   93.1720  102.5980  102.1850 C   0  0  0  0  0  0  0  0  0  0  0  0
   92.2380  101.8310  101.7960 O   0  0  0  0  0  0  0  0  0  0  0  0
   93.0450  103.8130  102.5380 O   0  0  0  0  0  0  0  0  0  0  0  0
  1  6  1  0  0  0  0
  2  1  1  0  0  0  0
  3  2  1  0  0  0  0
  4  3  1  0  0  0  0
  5  4  1  0  0  0  0
  6  7  1  0  0  0  0
  7  9  2  0  0  0  0
  7  8  1  0  0  0  0
  8 10  2  0  0  0  0
  9 12  1  0  0  0  0
 10 13  1  0  0  0  0
 10 22  1  0  0  0  0
 11 14  1  0  0  0  0
 11  9  1  0  0  0  0
 12 15  1  0  0  0  0
 12 13  2  0  0  0  0
 14 17  1  0  0  0  0
 15 18  2  0  0  0  0
 16 14  2  0  0  0  0
 17 15  1  0  0  0  0
 19 16  1  0  0  0  0
 19 21  2  0  0  0  0
 20 17  2  0  0  0  0
 21 20  1  0  0  0  0
 22 25  1  6  0  0  0
 22 24  1  0  0  0  0
 23 22  1  0  0  0  0
 26 23  1  0  0  0  0
 27 21  1  0  0  0  0
 27 29  1  0  0  0  0
 28 27  2  0  0  0  0
M  END
>  <minimizedAffinity>
-7.70998526

>  <CNNscore>
0.573073983

>  <CNNaffinity>
6.33035803

$$$$

 OpenBabel08282609063D

 29 31  0  0  0  0  0  0  0  0999 V2000
   97.2420  103.1660  107.4550 C   0  0  0  0  0  0  0  0  0  0  0  0
   97.8730  103.4680  108.8160 C   0  0  0  0  0  0  0  0  0  0  0  0
   99.1960  104.2320  108.7190 C   0  0  0  0  0  0  0  0  0  0  0  0
   99.1400  105.7120  109.1040 C   0  0  0  0  0  0  0  0  0  0  0  0
   98.6610  106.6160  107.9800 C   0  0  0  0  0  0  0  0  0  0  0  0
   98.2090  103.4940  106.3140 C   0  0  0  0  0  0  0  0  0  0  0  0
   98.4260  102.3060  105.4060 C   0  0  0  0  0  0  0  0  0  0  0  0
   97.5930  102.1330  104.2870 C   0  0  0  0  0  0  0  0  0  0  0  0
   99.4600  101.3800  105.6390 C   0  0  0  0  0  0  0  0  0  0  0  0
   97.7890  101.0480  103.4240 C   0  0  0  0  0  0  0  0  0  0  0  0
  100.2540  101.5940  106.7410 O   0  0  0  0  0  0  0  0  0  0  0  0
   99.6430  100.3050  104.7680 C   0  0  0  0  0  0  0  0  0  0  0  0
   98.8150  100.1340  103.6530 C   0  0  0  0  0  0  0  0  0  0  0  0
  101.2710  100.7110  107.0040 C   0  0  0  0  0  0  0  0  0  0  0  0
  100.7190   99.3380  105.0400 C   0  0  0  0  0  0  0  0  0  0  0  0
  102.0420  100.9810  108.1320 C   0  0  0  0  0  0  0  0  0  0  0  0
  101.5560   99.5930  106.2230 C   0  0  0  0  0  0  0  0  0  0  0  0
  100.8800   98.3740  104.3040 O   0  0  0  0  0  0  0  0  0  0  0  0
  103.0930  100.1300  108.4760 C   0  0  0  0  0  0  0  0  0  0  0  0
  102.6070   98.7360  106.5630 C   0  0  0  0  0  0  0  0  0  0  0  0
  103.3930   98.9960  107.7000 C   0  0  0  0  0  0  0  0  0  0  0  0
   96.7120  100.8320  102.0220 S   0  0  2  0  0  0  0  0  0  0  0  0
   97.5660  100.1550  100.9350 N   0  0  0  0  0  0  0  0  0  0  0  0
   96.0200  102.0940  101.8290 O   0  0  0  0  0  0  0  0  0  0  0  0
   95.4950   99.6710  102.5850 C   0  0  0  0  0  0  0  0  0  0  0  0
   98.3330  100.7620  100.6410 H   0  0  0  0  0  0  0  0  0  0  0  0
  104.5360   98.0770  108.0880 C   0  0  0  0  0  0  0  0  0  0  0  0
  104.9420   98.1330  109.2890 O   0  0  0  0  0  0  0  0  0  0  0  0
  104.9980   97.3210  107.1760 O   0  0  0  0  0  0  0  0  0  0  0  0
  1  2  1  0  0  0  0
  3  2  1  0  0  0  0
  3  4  1  0  0  0  0
  5  4  1  0  0  0  0
  6  1  1  0  0  0  0
  7  9  1  0  0  0  0
  7  6  1  0  0  0  0
  8  7  2  0  0  0  0
  9 11  1  0  0  0  0
 10 13  2  0  0  0  0
 10  8  1  0  0  0  0
 11 14  1  0  0  0  0
 12 15  1  0  0  0  0
 12  9  2  0  0  0  0
 13 12  1  0  0  0  0
 14 16  1  0  0  0  0
 15 17  1  0  0  0  0
 16 19  2  0  0  0  0
 17 20  1  0  0  0  0
 17 14  2  0  0  0  0
 18 15  2  0  0  0  0
 20 21  2  0  0  0  0
 21 27  1  0  0  0  0
 21 19  1  0  0  0  0
 22 25  1  1  0  0  0
 22 10  1  0  0  0  0
 23 22  1  0  0  0  0
 24 22  1  0  0  0  0
 26 23  1  0  0  0  0
 27 28  1  0  0  0  0
 29 27  2  0  0  0  0
M  END
>  <minimizedAffinity>
-9.35204029

>  <CNNscore>
0.567357421

>  <CNNaffinity>
6.91943741

$$$$

 OpenBabel08282609063D

 29 31  0  0  0  0  0  0  0  0999 V2000
   99.0270  105.2790  107.2950 C   0  0  0  0  0  0  0  0  0  0  0  0
   99.1550  106.7980  107.4360 C   0  0  0  0  0  0  0  0  0  0  0  0
   99.5760  107.4970  106.1390 C   0  0  0  0  0  0  0  0  0  0  0  0
  100.5040  108.7020  106.3060 C   0  0  0  0  0  0  0  0  0  0  0  0
   99.7700  110.0000  106.6010 C   0  0  0  0  0  0  0  0  0  0  0  0
   99.8780  104.7590  106.1330 C   0  0  0  0  0  0  0  0  0  0  0  0
   99.3740  103.4280  105.6230 C   0  0  0  0  0  0  0  0  0  0  0  0
   98.2020  103.3860  104.8480 C   0  0  0  0  0  0  0  0  0  0  0  0
  100.0650  102.2310  105.8850 C   0  0  0  0  0  0  0  0  0  0  0  0
   97.7290  102.1660  104.3520 C   0  0  0  0  0  0  0  0  0  0  0  0
  101.2100  102.3210  106.6400 O   0  0  0  0  0  0  0  0  0  0  0  0
   99.5800  101.0220  105.3810 C   0  0  0  0  0  0  0  0  0  0  0  0
   98.4150  100.9800  104.6080 C   0  0  0  0  0  0  0  0  0  0  0  0
  101.9090  101.1740  106.9190 C   0  0  0  0  0  0  0  0  0  0  0  0
  100.3080   99.7790  105.6800 C   0  0  0  0  0  0  0  0  0  0  0  0
  103.0620  101.3300  107.6860 C   0  0  0  0  0  0  0  0  0  0  0  0
  101.5320   99.9040  106.4870 C   0  0  0  0  0  0  0  0  0  0  0  0
   99.8870   98.7050  105.2720 O   0  0  0  0  0  0  0  0  0  0  0  0
  103.8300  100.2140  108.0210 C   0  0  0  0  0  0  0  0  0  0  0  0
  102.2970   98.7830  106.8210 C   0  0  0  0  0  0  0  0  0  0  0  0
  103.4620   98.9250  107.5960 C   0  0  0  0  0  0  0  0  0  0  0  0
   96.2310  102.1280  103.3890 S   0  0  2  0  0  0  0  0  0  0  0  0
   95.2310  101.2830  104.1990 N   0  0  0  0  0  0  0  0  0  0  0  0
   96.6200  101.8230  102.0250 O   0  0  0  0  0  0  0  0  0  0  0  0
   95.6730  103.8120  103.3900 C   0  0  0  0  0  0  0  0  0  0  0  0
   95.5580  100.3200  104.2930 H   0  0  0  0  0  0  0  0  0  0  0  0
  104.3040   97.7200  107.9710 C   0  0  0  0  0  0  0  0  0  0  0  0
  105.0720   97.2490  107.0770 O   0  0  0  0  0  0  0  0  0  0  0  0
  104.1720   97.2750  109.1550 O   0  0  0  0  0  0  0  0  0  0  0  0
  1  2  1  0  0  0  0
  3  4  1  0  0  0  0
  3  2  1  0  0  0  0
  4  5  1  0  0  0  0
  6  1  1  0  0  0  0
  7  9  1  0  0  0  0
  7  6  1  0  0  0  0
  8  7  2  0  0  0  0
  9 11  1  0  0  0  0
 10 13  2  0  0  0  0
 10  8  1  0  0  0  0
 11 14  1  0  0  0  0
 12 15  1  0  0  0  0
 12  9  2  0  0  0  0
 13 12  1  0  0  0  0
 14 16  1  0  0  0  0
 15 17  1  0  0  0  0
 16 19  2  0  0  0  0
 17 20  1  0  0  0  0
 17 14  2  0  0  0  0
 18 15  2  0  0  0  0
 20 21  2  0  0  0  0
 21 27  1  0  0  0  0
 21 19  1  0  0  0  0
 22 25  1  6  0  0  0
 22 23  1  0  0  0  0
 22 10  1  0  0  0  0
 23 26  1  0  0  0  0
 24 22  1  0  0  0  0
 27 29  1  0  0  0  0
 28 27  2  0  0  0  0
M  END
>  <minimizedAffinity>
-9.28901863

>  <CNNscore>
0.53552103

>  <CNNaffinity>
6.58998919

$$$$

 OpenBabel08282609063D

 29 31  0  0  0  0  0  0  0  0999 V2000
  101.3350   99.4980  102.1530 C   0  0  0  0  0  0  0  0  0  0  0  0
  100.5690  100.1730  101.0130 C   0  0  0  0  0  0  0  0  0  0  0  0
  101.3010  100.1140   99.6690 C   0  0  0  0  0  0  0  0  0  0  0  0
  100.4110  100.1570   98.4250 C   0  0  0  0  0  0  0  0  0  0  0  0
  101.0060  100.9580   97.2770 C   0  0  0  0  0  0  0  0  0  0  0  0
  100.3750   98.8960  103.1820 C   0  0  0  0  0  0  0  0  0  0  0  0
  100.7450   99.2940  104.5930 C   0  0  0  0  0  0  0  0  0  0  0  0
  101.7780   98.6070  105.2530 C   0  0  0  0  0  0  0  0  0  0  0  0
  100.0970  100.3540  105.2530 C   0  0  0  0  0  0  0  0  0  0  0  0
  102.1480   98.9710  106.5530 C   0  0  0  0  0  0  0  0  0  0  0  0
   99.0990  101.0030  104.5650 O   0  0  0  0  0  0  0  0  0  0  0  0
  100.4790  100.7070  106.5480 C   0  0  0  0  0  0  0  0  0  0  0  0
  101.5090  100.0240  107.2050 C   0  0  0  0  0  0  0  0  0  0  0  0
   98.4420  102.0400  105.1760 C   0  0  0  0  0  0  0  0  0  0  0  0
   99.7780  101.8080  107.2280 C   0  0  0  0  0  0  0  0  0  0  0  0
   97.4420  102.6590  104.4290 C   0  0  0  0  0  0  0  0  0  0  0  0
   98.7160  102.4860  106.4680 C   0  0  0  0  0  0  0  0  0  0  0  0
  100.0780  102.1150  108.3730 O   0  0  0  0  0  0  0  0  0  0  0  0
   96.7190  103.7190  104.9770 C   0  0  0  0  0  0  0  0  0  0  0  0
   97.9950  103.5470  107.0220 C   0  0  0  0  0  0  0  0  0  0  0  0
   96.9810  104.1800  106.2800 C   0  0  0  0  0  0  0  0  0  0  0  0
  103.4450   98.0760  107.3840 S   0  0  2  0  0  0  0  0  0  0  0  0
  104.1960   97.3060  106.2830 N   0  0  0  0  0  0  0  0  0  0  0  0
  102.8390   97.4390  108.5380 O   0  0  0  0  0  0  0  0  0  0  0  0
  104.5130   99.3450  108.0110 C   0  0  0  0  0  0  0  0  0  0  0  0
  103.5870   96.6180  105.8370 H   0  0  0  0  0  0  0  0  0  0  0  0
   96.1850  105.3310  106.8650 C   0  0  0  0  0  0  0  0  0  0  0  0
   94.9570  105.4040  106.5520 O   0  0  0  0  0  0  0  0  0  0  0  0
   96.8130  106.1340  107.6250 O   0  0  0  0  0  0  0  0  0  0  0  0
  1  6  1  0  0  0  0
  2  1  1  0  0  0  0
  3  2  1  0  0  0  0
  4  3  1  0  0  0  0
  5  4  1  0  0  0  0
  6  7  1  0  0  0  0
  7  8  2  0  0  0  0
  7  9  1  0  0  0  0
  8 10  1  0  0  0  0
  9 12  2  0  0  0  0
 10 13  2  0  0  0  0
 10 22  1  0  0  0  0
 11 14  1  0  0  0  0
 11  9  1  0  0  0  0
 12 13  1  0  0  0  0
 12 15  1  0  0  0  0
 14 17  1  0  0  0  0
 15 18  2  0  0  0  0
 16 19  1  0  0  0  0
 16 14  2  0  0  0  0
 17 20  2  0  0  0  0
 17 15  1  0  0  0  0
 19 21  2  0  0  0  0
 21 27  1  0  0  0  0
 21 20  1  0  0  0  0
 22 25  1  1  0  0  0
 22 24  1  0  0  0  0
 23 22  1  0  0  0  0
 26 23  1  0  0  0  0
 27 29  1  0  0  0  0
 28 27  2  0  0  0  0
M  END
>  <minimizedAffinity>
-7.54470539

>  <CNNscore>
0.529913127

>  <CNNaffinity>
6.61244154

$$$$

 OpenBabel08282609063D

 29 31  0  0  0  0  0  0  0  0999 V2000
   99.3450  104.6440  107.3570 C   0  0  0  0  0  0  0  0  0  0  0  0
   97.9650  104.7460  108.0120 C   0  0  0  0  0  0  0  0  0  0  0  0
   97.4420  103.4070  108.5410 C   0  0  0  0  0  0  0  0  0  0  0  0
   96.2000  102.8540  107.8380 C   0  0  0  0  0  0  0  0  0  0  0  0
   95.2780  103.9330  107.2930 C   0  0  0  0  0  0  0  0  0  0  0  0
   99.2300  104.6110  105.8300 C   0  0  0  0  0  0  0  0  0  0  0  0
   98.8900  103.2270  105.3250 C   0  0  0  0  0  0  0  0  0  0  0  0
   97.7610  103.0510  104.5060 C   0  0  0  0  0  0  0  0  0  0  0  0
   99.6910  102.1130  105.6350 C   0  0  0  0  0  0  0  0  0  0  0  0
   97.4390  101.7810  104.0140 C   0  0  0  0  0  0  0  0  0  0  0  0
  100.7890  102.3350  106.4330 O   0  0  0  0  0  0  0  0  0  0  0  0
   99.3580  100.8540  105.1350 C   0  0  0  0  0  0  0  0  0  0  0  0
   98.2350  100.6780  104.3180 C   0  0  0  0  0  0  0  0  0  0  0  0
  101.5930  101.2720  106.7590 C   0  0  0  0  0  0  0  0  0  0  0  0
  100.1990   99.6980  105.4840 C   0  0  0  0  0  0  0  0  0  0  0  0
  102.6910  101.5590  107.5680 C   0  0  0  0  0  0  0  0  0  0  0  0
  101.3690   99.9640  106.3360 C   0  0  0  0  0  0  0  0  0  0  0  0
   99.9100   98.5800  105.0790 O   0  0  0  0  0  0  0  0  0  0  0  0
  103.5570  100.5350  107.9530 C   0  0  0  0  0  0  0  0  0  0  0  0
  102.2330   98.9340  106.7190 C   0  0  0  0  0  0  0  0  0  0  0  0
  103.3450   99.2090  107.5370 C   0  0  0  0  0  0  0  0  0  0  0  0
   95.9940  101.5720  102.9940 S   0  0  2  0  0  0  0  0  0  0  0  0
   94.9140  100.9730  103.9130 N   0  0  0  0  0  0  0  0  0  0  0  0
   96.4400  100.9450  101.7640 O   0  0  0  0  0  0  0  0  0  0  0  0
   95.5180  103.2280  102.5730 C   0  0  0  0  0  0  0  0  0  0  0  0
   95.1890  100.0480  104.2460 H   0  0  0  0  0  0  0  0  0  0  0  0
  104.2920   98.1050  107.9660 C   0  0  0  0  0  0  0  0  0  0  0  0
  104.7190   97.3240  107.0610 O   0  0  0  0  0  0  0  0  0  0  0  0
  104.5840   98.0490  109.2020 O   0  0  0  0  0  0  0  0  0  0  0  0
  1  2  1  0  0  0  0
  2  3  1  0  0  0  0
  4  3  1  0  0  0  0
  5  4  1  0  0  0  0
  6  1  1  0  0  0  0
  7  9  1  0  0  0  0
  7  6  1  0  0  0  0
  8  7  2  0  0  0  0
  9 11  1  0  0  0  0
 10 13  2  0  0  0  0
 10  8  1  0  0  0  0
 11 14  1  0  0  0  0
 12 15  1  0  0  0  0
 12  9  2  0  0  0  0
 13 12  1  0  0  0  0
 14 16  1  0  0  0  0
 15 17  1  0  0  0  0
 16 19  2  0  0  0  0
 17 20  1  0  0  0  0
 17 14  2  0  0  0  0
 18 15  2  0  0  0  0
 20 21  2  0  0  0  0
 21 19  1  0  0  0  0
 21 27  1  0  0  0  0
 22 25  1  6  0  0  0
 22 23  1  0  0  0  0
 22 10  1  0  0  0  0
 23 26  1  0  0  0  0
 24 22  1  0  0  0  0
 27 29  1  0  0  0  0
 28 27  2  0  0  0  0
M  END
>  <minimizedAffinity>
-8.7403326

>  <CNNscore>
0.52163434

>  <CNNaffinity>
6.7546277

$$$$

 OpenBabel08282609063D

 29 31  0  0  0  0  0  0  0  0999 V2000
   99.1370  104.2970  106.9340 C   0  0  0  0  0  0  0  0  0  0  0  0
   99.1890  104.9270  105.5410 C   0  0  0  0  0  0  0  0  0  0  0  0
  100.4430  105.7740  105.3020 C   0  0  0  0  0  0  0  0  0  0  0  0
  101.4500  105.2040  104.3010 C   0  0  0  0  0  0  0  0  0  0  0  0
  101.7100  103.7160  104.4790 C   0  0  0  0  0  0  0  0  0  0  0  0
   98.1140  103.1590  106.9880 C   0  0  0  0  0  0  0  0  0  0  0  0
   98.3810  102.1170  105.9260 C   0  0  0  0  0  0  0  0  0  0  0  0
   97.5370  102.0430  104.8050 C   0  0  0  0  0  0  0  0  0  0  0  0
   99.4720  101.2330  106.0210 C   0  0  0  0  0  0  0  0  0  0  0  0
   97.7780  101.0970  103.8020 C   0  0  0  0  0  0  0  0  0  0  0  0
  100.2750  101.3470  107.1310 O   0  0  0  0  0  0  0  0  0  0  0  0
   99.7000  100.2960  105.0120 C   0  0  0  0  0  0  0  0  0  0  0  0
   98.8610  100.2240  103.8940 C   0  0  0  0  0  0  0  0  0  0  0  0
  101.3470  100.5010  107.2600 C   0  0  0  0  0  0  0  0  0  0  0  0
  100.8360   99.3690  105.1380 C   0  0  0  0  0  0  0  0  0  0  0  0
  102.1250  100.6650  108.4040 C   0  0  0  0  0  0  0  0  0  0  0  0
  101.6810   99.5150  106.3330 C   0  0  0  0  0  0  0  0  0  0  0  0
  101.0380   98.5220  104.2780 O   0  0  0  0  0  0  0  0  0  0  0  0
  103.2310   99.8420  108.6180 C   0  0  0  0  0  0  0  0  0  0  0  0
  102.7880   98.6870  106.5430 C   0  0  0  0  0  0  0  0  0  0  0  0
  103.5810   98.8410  107.6950 C   0  0  0  0  0  0  0  0  0  0  0  0
   96.6870  101.0030  102.3980 S   0  0  2  0  0  0  0  0  0  0  0  0
   97.4140  100.1340  101.3570 N   0  0  0  0  0  0  0  0  0  0  0  0
   96.2280  102.3550  102.1360 O   0  0  0  0  0  0  0  0  0  0  0  0
   95.2830  100.1020  103.0000 C   0  0  0  0  0  0  0  0  0  0  0  0
   98.2770  100.5830  101.0440 H   0  0  0  0  0  0  0  0  0  0  0  0
  104.7830   97.9500  107.9410 C   0  0  0  0  0  0  0  0  0  0  0  0
  105.0280   97.0550  107.0750 O   0  0  0  0  0  0  0  0  0  0  0  0
  105.4520   98.1700  109.0000 O   0  0  0  0  0  0  0  0  0  0  0  0
  1  6  1  0  0  0  0
  2  1  1  0  0  0  0
  3  2  1  0  0  0  0
  4  5  1  0  0  0  0
  4  3  1  0  0  0  0
  7  9  1  0  0  0  0
  7  6  1  0  0  0  0
  8  7  2  0  0  0  0
  9 11  1  0  0  0  0
 10 13  2  0  0  0  0
 10  8  1  0  0  0  0
 11 14  1  0  0  0  0
 12 15  1  0  0  0  0
 12  9  2  0  0  0  0
 13 12  1  0  0  0  0
 14 16  1  0  0  0  0
 15 17  1  0  0  0  0
 16 19  2  0  0  0  0
 17 20  1  0  0  0  0
 17 14  2  0  0  0  0
 18 15  2  0  0  0  0
 20 21  2  0  0  0  0
 21 27  1  0  0  0  0
 21 19  1  0  0  0  0
 22 25  1  1  0  0  0
 22 10  1  0  0  0  0
 23 22  1  0  0  0  0
 24 22  1  0  0  0  0
 26 23  1  0  0  0  0
 27 29  1  0  0  0  0
 28 27  2  0  0  0  0
M  END
>  <minimizedAffinity>
-8.72197914

>  <CNNscore>
0.521025658

>  <CNNaffinity>
6.76767206

$$$$

 OpenBabel08282609063D

 29 31  0  0  0  0  0  0  0  0999 V2000
  100.9810   99.5680  103.1470 C   0  0  0  0  0  0  0  0  0  0  0  0
   99.6800   99.8760  102.4020 C   0  0  0  0  0  0  0  0  0  0  0  0
   98.4440   99.2410  103.0460 C   0  0  0  0  0  0  0  0  0  0  0  0
   97.2300  100.1610  103.2020 C   0  0  0  0  0  0  0  0  0  0  0  0
   97.0420  101.1230  102.0400 C   0  0  0  0  0  0  0  0  0  0  0  0
  100.7140   98.7340  104.4020 C   0  0  0  0  0  0  0  0  0  0  0  0
  101.4240   99.2990  105.6110 C   0  0  0  0  0  0  0  0  0  0  0  0
  102.5350   98.6190  106.1380 C   0  0  0  0  0  0  0  0  0  0  0  0
  101.0140  100.5060  106.2070 C   0  0  0  0  0  0  0  0  0  0  0  0
  103.2170   99.1350  107.2460 C   0  0  0  0  0  0  0  0  0  0  0  0
   99.9270  101.1400  105.6530 O   0  0  0  0  0  0  0  0  0  0  0  0
  101.7060  101.0090  107.3110 C   0  0  0  0  0  0  0  0  0  0  0  0
  102.8130  100.3320  107.8340 C   0  0  0  0  0  0  0  0  0  0  0  0
   99.4960  102.3180  106.2090 C   0  0  0  0  0  0  0  0  0  0  0  0
  101.2510  102.2630  107.9300 C   0  0  0  0  0  0  0  0  0  0  0  0
   98.3930  102.9150  105.6030 C   0  0  0  0  0  0  0  0  0  0  0  0
  100.0890  102.9230  107.3160 C   0  0  0  0  0  0  0  0  0  0  0  0
  101.8260  102.7080  108.9150 O   0  0  0  0  0  0  0  0  0  0  0  0
   97.8850  104.1120  106.1080 C   0  0  0  0  0  0  0  0  0  0  0  0
   99.5830  104.1220  107.8270 C   0  0  0  0  0  0  0  0  0  0  0  0
   98.4690  104.7350  107.2260 C   0  0  0  0  0  0  0  0  0  0  0  0
  104.6110   98.2500  107.9140 S   0  0  2  0  0  0  0  0  0  0  0  0
  105.6770   99.3160  108.2240 N   0  0  0  0  0  0  0  0  0  0  0  0
  104.8410   97.1140  107.0400 O   0  0  0  0  0  0  0  0  0  0  0  0
  104.0110   97.5920  109.4480 C   0  0  0  0  0  0  0  0  0  0  0  0
  105.9900   99.7790  107.3700 H   0  0  0  0  0  0  0  0  0  0  0  0
   97.9040  106.0340  107.7680 C   0  0  0  0  0  0  0  0  0  0  0  0
   98.7350  106.8910  108.2010 O   0  0  0  0  0  0  0  0  0  0  0  0
   96.6390  106.1630  107.7450 O   0  0  0  0  0  0  0  0  0  0  0  0
  1  6  1  0  0  0  0
  2  3  1  0  0  0  0
  2  1  1  0  0  0  0
  3  4  1  0  0  0  0
  5  4  1  0  0  0  0
  6  7  1  0  0  0  0
  7  8  2  0  0  0  0
  7  9  1  0  0  0  0
  8 10  1  0  0  0  0
  9 12  2  0  0  0  0
 10 13  2  0  0  0  0
 10 22  1  0  0  0  0
 11  9  1  0  0  0  0
 11 14  1  0  0  0  0
 12 13  1  0  0  0  0
 12 15  1  0  0  0  0
 14 17  1  0  0  0  0
 15 18  2  0  0  0  0
 16 19  1  0  0  0  0
 16 14  2  0  0  0  0
 17 20  2  0  0  0  0
 17 15  1  0  0  0  0
 19 21  2  0  0  0  0
 21 27  1  0  0  0  0
 21 20  1  0  0  0  0
 22 23  1  0  0  0  0
 22 25  1  1  0  0  0
 24 22  1  0  0  0  0
 26 23  1  0  0  0  0
 27 28  1  0  0  0  0
 29 27  2  0  0  0  0
M  END
>  <minimizedAffinity>
-7.81899118

>  <CNNscore>
0.513615966

>  <CNNaffinity>
7.29637527

$$$$
