
 OpenBabel08282606023D

 34 37  0  0  1  0  0  0  0  0999 V2000
  100.5740  105.5390  104.5710 C   0  0  0  0  0  0  0  0  0  0  0  0
   99.2420  105.7660  104.9340 C   0  0  0  0  0  0  0  0  0  0  0  0
   98.3590  104.6970  105.1240 C   0  0  0  0  0  0  0  0  0  0  0  0
   98.7690  103.3640  104.9510 C   0  0  0  0  0  0  0  0  0  0  0  0
  100.1140  103.1470  104.6060 C   0  0  0  0  0  0  0  0  0  0  0  0
  101.0010  104.2140  104.4180 C   0  0  0  0  0  0  0  0  0  0  0  0
  101.5500  106.6830  104.3400 C   0  0  1  0  0  0  0  0  0  0  0  0
  104.4620  107.4570  104.7660 C   0  0  1  0  0  0  0  0  0  0  0  0
  103.5490  106.9750  105.9110 C   0  0  0  0  0  0  0  0  0  0  0  0
  103.7890  107.3260  103.3850 C   0  0  0  0  0  0  0  0  0  0  0  0
  102.0750  107.2870  105.6610 C   0  0  0  0  0  0  0  0  0  0  0  0
  102.6820  106.2770  103.3780 C   0  0  0  0  0  0  0  0  0  0  0  0
  104.9310  108.9000  105.0120 C   0  0  0  0  0  0  0  0  0  0  0  0
  106.2750  109.0430  105.7370 C   0  0  0  0  0  0  0  0  0  0  0  0
  106.5400  110.1890  106.1920 O   0  0  0  0  0  0  0  0  0  0  0  0
  106.9630  107.9830  105.7760 O   0  0  0  0  0  0  0  0  0  0  0  0
   97.8130  102.2500  105.1250 C   0  0  0  0  0  0  0  0  0  0  0  0
   96.5470  102.4210  105.6820 C   0  0  0  0  0  0  0  0  0  0  0  0
   98.2410  101.0260  104.7290 N   0  0  0  0  0  0  0  0  0  0  0  0
   95.7000  101.3180  105.8230 C   0  0  0  0  0  0  0  0  0  0  0  0
   97.3950   99.9760  104.8760 C   0  0  0  0  0  0  0  0  0  0  0  0
   96.1150  100.0490  105.4180 C   0  0  0  0  0  0  0  0  0  0  0  0
   95.2320   98.9670  105.5310 N   0  0  0  0  0  0  0  0  0  0  0  0
   95.6680   98.1140  105.8650 H   0  0  0  0  0  0  0  0  0  0  0  0
   93.8570   98.8510  105.2820 C   0  0  0  0  0  0  0  0  0  0  0  0
   92.9880   98.5840  106.3440 C   0  0  0  0  0  0  0  0  0  0  0  0
   93.2710   98.9280  104.0210 C   0  0  0  0  0  0  0  0  0  0  0  0
   91.6200   98.4240  106.1200 C   0  0  0  0  0  0  0  0  0  0  0  0
   91.9450   98.7790  103.7670 N   0  0  0  0  0  0  0  0  0  0  0  0
   91.1220   98.5320  104.8220 C   0  0  0  0  0  0  0  0  0  0  0  0
   89.6290   98.3400  104.5860 C   0  0  0  0  0  0  0  0  0  0  0  0
   89.3420   97.1360  104.0090 F   0  0  0  0  0  0  0  0  0  0  0  0
   88.9130   98.3580  105.7520 F   0  0  0  0  0  0  0  0  0  0  0  0
   89.0530   99.2840  103.7900 F   0  0  0  0  0  0  0  0  0  0  0  0
  1  2  1  0  0  0  0
  2  3  2  0  0  0  0
  4  3  1  0  0  0  0
  4 17  1  0  0  0  0
  5  4  2  0  0  0  0
  6  1  2  0  0  0  0
  6  5  1  0  0  0  0
  7  1  1  1  0  0  0
  7 11  1  0  0  0  0
  8 13  1  1  0  0  0
  8  9  1  0  0  0  0
 10  8  1  0  0  0  0
 11  9  1  0  0  0  0
 12 10  1  0  0  0  0
 12  7  1  0  0  0  0
 13 14  1  0  0  0  0
 14 16  2  0  0  0  0
 14 15  1  0  0  0  0
 17 18  1  0  0  0  0
 18 20  2  0  0  0  0
 19 21  1  0  0  0  0
 19 17  2  0  0  0  0
 21 22  2  0  0  0  0
 22 23  1  0  0  0  0
 22 20  1  0  0  0  0
 23 24  1  0  0  0  0
 25 23  1  0  0  0  0
 25 26  1  0  0  0  0
 27 25  2  0  0  0  0
 28 26  2  0  0  0  0
 29 27  1  0  0  0  0
 29 30  2  0  0  0  0
 30 28  1  0  0  0  0
 31 30  1  0  0  0  0
 31 33  1  0  0  0  0
 32 31  1  0  0  0  0
 34 31  1  0  0  0  0
M  END
>  <minimizedAffinity>
1.88963568

>  <CNNscore>
0.661115885

>  <CNNaffinity>
6.57470179

$$$$

 OpenBabel08282606023D

 34 37  0  0  1  0  0  0  0  0999 V2000
  101.3360  100.4320  105.9080 C   0  0  0  0  0  0  0  0  0  0  0  0
  101.2020  100.3570  104.5170 C   0  0  0  0  0  0  0  0  0  0  0  0
  100.0440  100.8240  103.8840 C   0  0  0  0  0  0  0  0  0  0  0  0
   98.9760  101.3750  104.6130 C   0  0  0  0  0  0  0  0  0  0  0  0
   99.1320  101.4630  106.0070 C   0  0  0  0  0  0  0  0  0  0  0  0
  100.2900  100.9990  106.6440 C   0  0  0  0  0  0  0  0  0  0  0  0
  102.5760   99.9160  106.6230 C   0  0  1  0  0  0  0  0  0  0  0  0
  103.4290   98.0840  108.8990 C   0  0  1  0  0  0  0  0  0  0  0  0
  102.4240   99.2380  109.0860 C   0  0  0  0  0  0  0  0  0  0  0  0
  103.7980   97.8630  107.4180 C   0  0  0  0  0  0  0  0  0  0  0  0
  102.6440  100.3790  108.0950 C   0  0  0  0  0  0  0  0  0  0  0  0
  102.7270   98.3910  106.4690 C   0  0  0  0  0  0  0  0  0  0  0  0
  104.6890   98.3130  109.7490 C   0  0  0  0  0  0  0  0  0  0  0  0
  106.0230   98.0590  109.0340 C   0  0  0  0  0  0  0  0  0  0  0  0
  107.0630   98.3610  109.6800 O   0  0  0  0  0  0  0  0  0  0  0  0
  105.9080   97.5870  107.8670 O   0  0  0  0  0  0  0  0  0  0  0  0
   97.7490  101.8320  103.9290 C   0  0  0  0  0  0  0  0  0  0  0  0
   97.1170  103.0350  104.2370 C   0  0  0  0  0  0  0  0  0  0  0  0
   97.2460  101.0030  102.9830 N   0  0  0  0  0  0  0  0  0  0  0  0
   95.9540  103.3990  103.5530 C   0  0  0  0  0  0  0  0  0  0  0  0
   96.1170  101.3840  102.3340 C   0  0  0  0  0  0  0  0  0  0  0  0
   95.4180  102.5640  102.5710 C   0  0  0  0  0  0  0  0  0  0  0  0
   94.2750  102.9700  101.8700 N   0  0  0  0  0  0  0  0  0  0  0  0
   94.2720  103.9550  101.6240 H   0  0  0  0  0  0  0  0  0  0  0  0
   93.1450  102.2650  101.4320 C   0  0  0  0  0  0  0  0  0  0  0  0
   93.3130  101.1300  100.6350 C   0  0  0  0  0  0  0  0  0  0  0  0
   91.8290  102.6420  101.6860 C   0  0  0  0  0  0  0  0  0  0  0  0
   92.2050  100.4310  100.1510 C   0  0  0  0  0  0  0  0  0  0  0  0
   90.7290  101.9860  101.2330 N   0  0  0  0  0  0  0  0  0  0  0  0
   90.9230  100.8770  100.4700 C   0  0  0  0  0  0  0  0  0  0  0  0
   89.7210  100.1150   99.9240 C   0  0  0  0  0  0  0  0  0  0  0  0
   90.0850   99.0110   99.2070 F   0  0  0  0  0  0  0  0  0  0  0  0
   88.9080   99.6460  100.9180 F   0  0  0  0  0  0  0  0  0  0  0  0
   88.9110  100.8440   99.1050 F   0  0  0  0  0  0  0  0  0  0  0  0
  1  6  1  0  0  0  0
  2  1  2  0  0  0  0
  3  2  1  0  0  0  0
  3  4  2  0  0  0  0
  4  5  1  0  0  0  0
  5  6  2  0  0  0  0
  7  1  1  1  0  0  0
  7 11  1  0  0  0  0
  8  9  1  0  0  0  0
  8 13  1  1  0  0  0
 10  8  1  0  0  0  0
 11  9  1  0  0  0  0
 12  7  1  0  0  0  0
 12 10  1  0  0  0  0
 14 15  1  0  0  0  0
 14 13  1  0  0  0  0
 16 14  2  0  0  0  0
 17 18  1  0  0  0  0
 17  4  1  0  0  0  0
 19 17  2  0  0  0  0
 20 18  2  0  0  0  0
 21 22  2  0  0  0  0
 21 19  1  0  0  0  0
 22 20  1  0  0  0  0
 23 22  1  0  0  0  0
 24 23  1  0  0  0  0
 25 27  1  0  0  0  0
 25 23  1  0  0  0  0
 26 25  2  0  0  0  0
 28 30  2  0  0  0  0
 28 26  1  0  0  0  0
 29 27  2  0  0  0  0
 30 29  1  0  0  0  0
 31 30  1  0  0  0  0
 31 33  1  0  0  0  0
 32 31  1  0  0  0  0
 34 31  1  0  0  0  0
M  END
>  <minimizedAffinity>
-6.57068205

>  <CNNscore>
0.622535884

>  <CNNaffinity>
6.89684343

$$$$

 OpenBabel08282606023D

 34 37  0  0  1  0  0  0  0  0999 V2000
  101.1670  104.4910  104.8780 C   0  0  0  0  0  0  0  0  0  0  0  0
  101.3320  103.2570  104.2400 C   0  0  0  0  0  0  0  0  0  0  0  0
  100.2380  102.4120  104.0190 C   0  0  0  0  0  0  0  0  0  0  0  0
   98.9420  102.7630  104.4340 C   0  0  0  0  0  0  0  0  0  0  0  0
   98.7850  104.0140  105.0550 C   0  0  0  0  0  0  0  0  0  0  0  0
   99.8770  104.8630  105.2750 C   0  0  0  0  0  0  0  0  0  0  0  0
  102.3410  105.4200  105.1460 C   0  0  1  0  0  0  0  0  0  0  0  0
  103.7230  107.8990  104.0470 C   0  0  1  0  0  0  0  0  0  0  0  0
  103.4590  106.6410  103.1950 C   0  0  0  0  0  0  0  0  0  0  0  0
  103.0530  107.8180  105.4340 C   0  0  0  0  0  0  0  0  0  0  0  0
  103.4070  105.3640  104.0300 C   0  0  0  0  0  0  0  0  0  0  0  0
  101.8710  106.8550  105.4510 C   0  0  0  0  0  0  0  0  0  0  0  0
  105.2310  108.1630  104.1820 C   0  0  0  0  0  0  0  0  0  0  0  0
  105.7480  108.3260  105.6170 C   0  0  0  0  0  0  0  0  0  0  0  0
  104.9640  108.8920  106.4260 O   0  0  0  0  0  0  0  0  0  0  0  0
  106.9160  107.8790  105.8050 O   0  0  0  0  0  0  0  0  0  0  0  0
   97.8040  101.8440  104.2200 C   0  0  0  0  0  0  0  0  0  0  0  0
   96.6480  101.8800  104.9960 C   0  0  0  0  0  0  0  0  0  0  0  0
   97.9490  100.9310  103.2280 N   0  0  0  0  0  0  0  0  0  0  0  0
   95.6160  100.9730  104.7410 C   0  0  0  0  0  0  0  0  0  0  0  0
   96.9300  100.0660  103.0030 C   0  0  0  0  0  0  0  0  0  0  0  0
   95.7390  100.0270  103.7230 C   0  0  0  0  0  0  0  0  0  0  0  0
   94.6740   99.1560  103.4590 N   0  0  0  0  0  0  0  0  0  0  0  0
   94.7720   98.2440  103.8930 H   0  0  0  0  0  0  0  0  0  0  0  0
   93.4930   99.3180  102.7210 C   0  0  0  0  0  0  0  0  0  0  0  0
   93.4860   98.9960  101.3610 C   0  0  0  0  0  0  0  0  0  0  0  0
   92.3060   99.8400  103.2300 C   0  0  0  0  0  0  0  0  0  0  0  0
   92.3360   99.1860  100.5910 C   0  0  0  0  0  0  0  0  0  0  0  0
   91.1700  100.0360  102.5110 N   0  0  0  0  0  0  0  0  0  0  0  0
   91.1890   99.7020  101.1930 C   0  0  0  0  0  0  0  0  0  0  0  0
   89.9440   99.9200  100.3400 C   0  0  0  0  0  0  0  0  0  0  0  0
   88.9040   99.1230  100.7240 F   0  0  0  0  0  0  0  0  0  0  0  0
   89.4690  101.2000  100.4320 F   0  0  0  0  0  0  0  0  0  0  0  0
   90.1210   99.6920   99.0080 F   0  0  0  0  0  0  0  0  0  0  0  0
  1  6  1  0  0  0  0
  2  1  2  0  0  0  0
  3  2  1  0  0  0  0
  3  4  2  0  0  0  0
  4  5  1  0  0  0  0
  5  6  2  0  0  0  0
  7  1  1  6  0  0  0
  7 12  1  0  0  0  0
  8 13  1  1  0  0  0
  8 10  1  0  0  0  0
  9 11  1  0  0  0  0
  9  8  1  0  0  0  0
 10 12  1  0  0  0  0
 11  7  1  0  0  0  0
 13 14  1  0  0  0  0
 14 16  2  0  0  0  0
 14 15  1  0  0  0  0
 17  4  1  0  0  0  0
 17 18  1  0  0  0  0
 19 17  2  0  0  0  0
 20 18  2  0  0  0  0
 21 19  1  0  0  0  0
 21 22  2  0  0  0  0
 22 20  1  0  0  0  0
 23 22  1  0  0  0  0
 23 24  1  0  0  0  0
 25 27  1  0  0  0  0
 25 23  1  0  0  0  0
 26 25  2  0  0  0  0
 28 30  2  0  0  0  0
 28 26  1  0  0  0  0
 29 27  2  0  0  0  0
 30 29  1  0  0  0  0
 31 33  1  0  0  0  0
 31 32  1  0  0  0  0
 31 30  1  0  0  0  0
 34 31  1  0  0  0  0
M  END
>  <minimizedAffinity>
1.48099744

>  <CNNscore>
0.615725338

>  <CNNaffinity>
6.62948656

$$$$

 OpenBabel08282606023D

 34 37  0  0  1  0  0  0  0  0999 V2000
   95.0060   99.7010  102.8020 C   0  0  0  0  0  0  0  0  0  0  0  0
   96.0550   98.8000  102.5870 C   0  0  0  0  0  0  0  0  0  0  0  0
   97.2060   98.8390  103.3820 C   0  0  0  0  0  0  0  0  0  0  0  0
   97.3570   99.7810  104.4140 C   0  0  0  0  0  0  0  0  0  0  0  0
   96.2880  100.6670  104.6330 C   0  0  0  0  0  0  0  0  0  0  0  0
   95.1340  100.6300  103.8420 C   0  0  0  0  0  0  0  0  0  0  0  0
   93.7510   99.6920  101.9420 C   0  0  1  0  0  0  0  0  0  0  0  0
   90.8750  100.6870  101.9060 C   0  0  1  0  0  0  0  0  0  0  0  0
   91.4520   99.8390  103.0570 C   0  0  0  0  0  0  0  0  0  0  0  0
   91.9570  101.1130  100.8930 C   0  0  0  0  0  0  0  0  0  0  0  0
   92.5860   98.9220  102.6030 C   0  0  0  0  0  0  0  0  0  0  0  0
   93.3540  101.1140  101.5040 C   0  0  0  0  0  0  0  0  0  0  0  0
   89.7270   99.9460  101.2030 C   0  0  0  0  0  0  0  0  0  0  0  0
   89.1340  100.6560   99.9790 C   0  0  0  0  0  0  0  0  0  0  0  0
   88.9600   99.9420   98.9550 O   0  0  0  0  0  0  0  0  0  0  0  0
   88.9050  101.8880  100.1510 O   0  0  0  0  0  0  0  0  0  0  0  0
   98.5940   99.8270  105.2220 C   0  0  0  0  0  0  0  0  0  0  0  0
   98.9180  100.9010  106.0480 C   0  0  0  0  0  0  0  0  0  0  0  0
   99.4260   98.7630  105.1040 N   0  0  0  0  0  0  0  0  0  0  0  0
  100.1100  100.8780  106.7760 C   0  0  0  0  0  0  0  0  0  0  0  0
  100.5740   98.7680  105.8260 C   0  0  0  0  0  0  0  0  0  0  0  0
  100.9810   99.7920  106.6760 C   0  0  0  0  0  0  0  0  0  0  0  0
  102.1500   99.7730  107.4490 N   0  0  0  0  0  0  0  0  0  0  0  0
  102.1870   99.0110  108.1180 H   0  0  0  0  0  0  0  0  0  0  0  0
  103.2810  100.6010  107.4550 C   0  0  0  0  0  0  0  0  0  0  0  0
  103.1720  101.9130  106.9880 C   0  0  0  0  0  0  0  0  0  0  0  0
  104.5550  100.1990  107.8490 C   0  0  0  0  0  0  0  0  0  0  0  0
  104.2900  102.7490  106.9440 C   0  0  0  0  0  0  0  0  0  0  0  0
  105.6630  100.9830  107.8210 N   0  0  0  0  0  0  0  0  0  0  0  0
  105.5240  102.2600  107.3730 C   0  0  0  0  0  0  0  0  0  0  0  0
  106.7410  103.1750  107.3070 C   0  0  0  0  0  0  0  0  0  0  0  0
  106.7770  104.0710  108.3370 F   0  0  0  0  0  0  0  0  0  0  0  0
  107.9170  102.4820  107.3930 F   0  0  0  0  0  0  0  0  0  0  0  0
  106.8360  103.9130  106.1650 F   0  0  0  0  0  0  0  0  0  0  0  0
  1  6  1  0  0  0  0
  2  1  2  0  0  0  0
  2  3  1  0  0  0  0
  3  4  2  0  0  0  0
  4  5  1  0  0  0  0
  4 17  1  0  0  0  0
  6  5  2  0  0  0  0
  7 11  1  0  0  0  0
  7  1  1  1  0  0  0
  8 13  1  6  0  0  0
  8  9  1  0  0  0  0
 10 12  1  0  0  0  0
 10  8  1  0  0  0  0
 11  9  1  0  0  0  0
 12  7  1  0  0  0  0
 14 16  1  0  0  0  0
 14 13  1  0  0  0  0
 15 14  2  0  0  0  0
 17 18  1  0  0  0  0
 18 20  2  0  0  0  0
 19 17  2  0  0  0  0
 19 21  1  0  0  0  0
 21 22  2  0  0  0  0
 22 20  1  0  0  0  0
 22 23  1  0  0  0  0
 23 25  1  0  0  0  0
 23 24  1  0  0  0  0
 25 27  1  0  0  0  0
 26 25  2  0  0  0  0
 28 26  1  0  0  0  0
 28 30  2  0  0  0  0
 29 27  2  0  0  0  0
 30 29  1  0  0  0  0
 31 30  1  0  0  0  0
 31 33  1  0  0  0  0
 31 32  1  0  0  0  0
 34 31  1  0  0  0  0
M  END
>  <minimizedAffinity>
2.69343591

>  <CNNscore>
0.591533601

>  <CNNaffinity>
6.97674227

$$$$

 OpenBabel08282606023D

 34 37  0  0  1  0  0  0  0  0999 V2000
  101.4370  100.0470  105.8100 C   0  0  0  0  0  0  0  0  0  0  0  0
  101.2670   99.7450  104.4540 C   0  0  0  0  0  0  0  0  0  0  0  0
  100.1490  100.2120  103.7520 C   0  0  0  0  0  0  0  0  0  0  0  0
   99.1580  100.9880  104.3770 C   0  0  0  0  0  0  0  0  0  0  0  0
   99.3510  101.3010  105.7330 C   0  0  0  0  0  0  0  0  0  0  0  0
  100.4680  100.8390  106.4390 C   0  0  0  0  0  0  0  0  0  0  0  0
  102.6330   99.5390  106.6020 C   0  0  1  0  0  0  0  0  0  0  0  0
  103.3430   98.0400  109.1530 C   0  0  1  0  0  0  0  0  0  0  0  0
  102.4580   99.3020  109.1440 C   0  0  0  0  0  0  0  0  0  0  0  0
  103.6640   97.5380  107.7300 C   0  0  0  0  0  0  0  0  0  0  0  0
  102.7700  100.2340  107.9750 C   0  0  0  0  0  0  0  0  0  0  0  0
  102.6320   98.0030  106.7060 C   0  0  0  0  0  0  0  0  0  0  0  0
  104.6340   98.2830  109.9510 C   0  0  0  0  0  0  0  0  0  0  0  0
  105.9240   98.3320  109.1220 C   0  0  0  0  0  0  0  0  0  0  0  0
  107.0020   98.3470  109.7760 O   0  0  0  0  0  0  0  0  0  0  0  0
  105.7400   98.3660  107.8720 O   0  0  0  0  0  0  0  0  0  0  0  0
   97.9690  101.4430  103.6260 C   0  0  0  0  0  0  0  0  0  0  0  0
   97.6450  100.9610  102.3600 C   0  0  0  0  0  0  0  0  0  0  0  0
   97.2040  102.3850  104.2300 N   0  0  0  0  0  0  0  0  0  0  0  0
   96.5080  101.4450  101.7070 C   0  0  0  0  0  0  0  0  0  0  0  0
   96.1050  102.8330  103.5720 C   0  0  0  0  0  0  0  0  0  0  0  0
   95.7020  102.4120  102.3090 C   0  0  0  0  0  0  0  0  0  0  0  0
   94.5440  102.8500  101.6520 N   0  0  0  0  0  0  0  0  0  0  0  0
   94.5750  103.8250  101.3720 H   0  0  0  0  0  0  0  0  0  0  0  0
   93.3620  102.1860  101.2970 C   0  0  0  0  0  0  0  0  0  0  0  0
   93.4330  101.0270  100.5210 C   0  0  0  0  0  0  0  0  0  0  0  0
   92.0800  102.6280  101.6160 C   0  0  0  0  0  0  0  0  0  0  0  0
   92.2700  100.3670  100.1170 C   0  0  0  0  0  0  0  0  0  0  0  0
   90.9280  102.0110  101.2420 N   0  0  0  0  0  0  0  0  0  0  0  0
   91.0300  100.8770  100.4970 C   0  0  0  0  0  0  0  0  0  0  0  0
   89.7660  100.1580  100.0390 C   0  0  0  0  0  0  0  0  0  0  0  0
   88.9050  100.9870   99.3790 F   0  0  0  0  0  0  0  0  0  0  0  0
   90.0350   99.1450   99.1600 F   0  0  0  0  0  0  0  0  0  0  0  0
   89.0420   99.5870  101.0430 F   0  0  0  0  0  0  0  0  0  0  0  0
  1  6  1  0  0  0  0
  2  1  2  0  0  0  0
  3  4  2  0  0  0  0
  3  2  1  0  0  0  0
  4  5  1  0  0  0  0
  5  6  2  0  0  0  0
  7  1  1  1  0  0  0
  7 12  1  0  0  0  0
  7 11  1  0  0  0  0
  8 13  1  6  0  0  0
  9  8  1  0  0  0  0
 10  8  1  0  0  0  0
 11  9  1  0  0  0  0
 12 10  1  0  0  0  0
 14 15  1  0  0  0  0
 14 13  1  0  0  0  0
 16 14  2  0  0  0  0
 17 19  1  0  0  0  0
 17  4  1  0  0  0  0
 18 17  2  0  0  0  0
 20 22  2  0  0  0  0
 20 18  1  0  0  0  0
 21 19  2  0  0  0  0
 22 21  1  0  0  0  0
 23 22  1  0  0  0  0
 24 23  1  0  0  0  0
 25 27  1  0  0  0  0
 25 23  1  0  0  0  0
 26 25  2  0  0  0  0
 28 30  2  0  0  0  0
 28 26  1  0  0  0  0
 29 27  2  0  0  0  0
 30 29  1  0  0  0  0
 31 30  1  0  0  0  0
 31 34  1  0  0  0  0
 32 31  1  0  0  0  0
 33 31  1  0  0  0  0
M  END
>  <minimizedAffinity>
-6.26087332

>  <CNNscore>
0.564542651

>  <CNNaffinity>
6.83538246

$$$$

 OpenBabel08282606023D

 34 37  0  0  1  0  0  0  0  0999 V2000
  100.4220   99.6160  105.7420 C   0  0  0  0  0  0  0  0  0  0  0  0
   99.8860   98.6750  104.8550 C   0  0  0  0  0  0  0  0  0  0  0  0
   98.5620   98.7820  104.4140 C   0  0  0  0  0  0  0  0  0  0  0  0
   97.7230   99.8240  104.8460 C   0  0  0  0  0  0  0  0  0  0  0  0
   98.2800  100.7730  105.7200 C   0  0  0  0  0  0  0  0  0  0  0  0
   99.6040  100.6720  106.1620 C   0  0  0  0  0  0  0  0  0  0  0  0
  101.8520   99.5140  106.2510 C   0  0  1  0  0  0  0  0  0  0  0  0
  103.5440   98.1010  108.3500 C   0  0  1  0  0  0  0  0  0  0  0  0
  102.2820   98.9150  108.7020 C   0  0  0  0  0  0  0  0  0  0  0  0
  103.7330   97.9430  106.8270 C   0  0  0  0  0  0  0  0  0  0  0  0
  102.0020  100.0320  107.6980 C   0  0  0  0  0  0  0  0  0  0  0  0
  102.4230   98.0970  106.0620 C   0  0  0  0  0  0  0  0  0  0  0  0
  104.7930   98.7230  108.9950 C   0  0  0  0  0  0  0  0  0  0  0  0
  106.1210   98.0320  108.6620 C   0  0  0  0  0  0  0  0  0  0  0  0
  106.0750   97.1460  107.7650 O   0  0  0  0  0  0  0  0  0  0  0  0
  107.1050   98.4330  109.3470 O   0  0  0  0  0  0  0  0  0  0  0  0
   96.3180   99.9010  104.3940 C   0  0  0  0  0  0  0  0  0  0  0  0
   95.9020  100.7360  103.3590 C   0  0  0  0  0  0  0  0  0  0  0  0
   95.4310   99.1200  105.0580 N   0  0  0  0  0  0  0  0  0  0  0  0
   94.5540  100.7620  102.9920 C   0  0  0  0  0  0  0  0  0  0  0  0
   94.1300   99.1650  104.6770 C   0  0  0  0  0  0  0  0  0  0  0  0
   93.6220   99.9640  103.6570 C   0  0  0  0  0  0  0  0  0  0  0  0
   92.2830   99.9760  103.2420 N   0  0  0  0  0  0  0  0  0  0  0  0
   91.6710   99.4040  103.8140 H   0  0  0  0  0  0  0  0  0  0  0  0
   91.6350  100.6450  102.1950 C   0  0  0  0  0  0  0  0  0  0  0  0
   92.3850  101.1180  101.1150 C   0  0  0  0  0  0  0  0  0  0  0  0
   90.2730  100.9340  102.1630 C   0  0  0  0  0  0  0  0  0  0  0  0
   91.7720  101.8230  100.0770 C   0  0  0  0  0  0  0  0  0  0  0  0
   89.6430  101.6150  101.1710 N   0  0  0  0  0  0  0  0  0  0  0  0
   90.3980  102.0530  100.1260 C   0  0  0  0  0  0  0  0  0  0  0  0
   89.7410  102.8370   98.9960 C   0  0  0  0  0  0  0  0  0  0  0  0
   89.0010  103.8900   99.4530 F   0  0  0  0  0  0  0  0  0  0  0  0
   90.6590  103.3860   98.1430 F   0  0  0  0  0  0  0  0  0  0  0  0
   88.9040  102.1040   98.2080 F   0  0  0  0  0  0  0  0  0  0  0  0
  1  6  1  0  0  0  0
  2  1  2  0  0  0  0
  3  4  2  0  0  0  0
  3  2  1  0  0  0  0
  4  5  1  0  0  0  0
  5  6  2  0  0  0  0
  7  1  1  1  0  0  0
  7 11  1  0  0  0  0
  8  9  1  0  0  0  0
  8 13  1  6  0  0  0
 10  8  1  0  0  0  0
 11  9  1  0  0  0  0
 12  7  1  0  0  0  0
 12 10  1  0  0  0  0
 14 13  1  0  0  0  0
 14 16  1  0  0  0  0
 15 14  2  0  0  0  0
 17  4  1  0  0  0  0
 17 19  1  0  0  0  0
 18 17  2  0  0  0  0
 20 18  1  0  0  0  0
 20 22  2  0  0  0  0
 21 19  2  0  0  0  0
 22 21  1  0  0  0  0
 23 22  1  0  0  0  0
 23 24  1  0  0  0  0
 25 23  1  0  0  0  0
 26 25  2  0  0  0  0
 27 25  1  0  0  0  0
 28 30  2  0  0  0  0
 28 26  1  0  0  0  0
 29 27  2  0  0  0  0
 30 29  1  0  0  0  0
 31 32  1  0  0  0  0
 31 30  1  0  0  0  0
 33 31  1  0  0  0  0
 34 31  1  0  0  0  0
M  END
>  <minimizedAffinity>
-4.7176671

>  <CNNscore>
0.56073308

>  <CNNaffinity>
6.67656898

$$$$

 OpenBabel08282606023D

 34 37  0  0  1  0  0  0  0  0999 V2000
  101.8440   99.9820  106.4690 C   0  0  0  0  0  0  0  0  0  0  0  0
  100.9170  100.9680  106.8220 C   0  0  0  0  0  0  0  0  0  0  0  0
   99.8190  101.2460  105.9990 C   0  0  0  0  0  0  0  0  0  0  0  0
   99.6100  100.5570  104.7920 C   0  0  0  0  0  0  0  0  0  0  0  0
  100.5380   99.5540  104.4590 C   0  0  0  0  0  0  0  0  0  0  0  0
  101.6360   99.2720  105.2800 C   0  0  0  0  0  0  0  0  0  0  0  0
  103.0560   99.6720  107.3350 C   0  0  1  0  0  0  0  0  0  0  0  0
  104.0190   97.7550  109.4940 C   0  0  1  0  0  0  0  0  0  0  0  0
  102.7260   98.5840  109.6280 C   0  0  0  0  0  0  0  0  0  0  0  0
  104.6490   97.8750  108.0910 C   0  0  0  0  0  0  0  0  0  0  0  0
  102.7780   99.8900  108.8390 C   0  0  0  0  0  0  0  0  0  0  0  0
  103.6290   98.2750  107.0300 C   0  0  0  0  0  0  0  0  0  0  0  0
  105.0320   98.1400  110.5840 C   0  0  0  0  0  0  0  0  0  0  0  0
  106.4910   98.2450  110.1220 C   0  0  0  0  0  0  0  0  0  0  0  0
  107.3620   98.2340  111.0340 O   0  0  0  0  0  0  0  0  0  0  0  0
  106.6370   98.3450  108.8700 O   0  0  0  0  0  0  0  0  0  0  0  0
   98.4630  100.8870  103.9210 C   0  0  0  0  0  0  0  0  0  0  0  0
   97.7120  102.0510  104.0690 C   0  0  0  0  0  0  0  0  0  0  0  0
   98.1540   99.9760  102.9650 N   0  0  0  0  0  0  0  0  0  0  0  0
   96.6350  102.2920  103.2130 C   0  0  0  0  0  0  0  0  0  0  0  0
   97.1050  100.2390  102.1470 C   0  0  0  0  0  0  0  0  0  0  0  0
   96.3000  101.3730  102.2180 C   0  0  0  0  0  0  0  0  0  0  0  0
   95.2420  101.6570  101.3440 N   0  0  0  0  0  0  0  0  0  0  0  0
   95.5220  102.1630  100.5100 H   0  0  0  0  0  0  0  0  0  0  0  0
   93.8740  101.3580  101.4040 C   0  0  0  0  0  0  0  0  0  0  0  0
   93.0520  101.6900  100.3230 C   0  0  0  0  0  0  0  0  0  0  0  0
   93.2340  100.7910  102.5030 C   0  0  0  0  0  0  0  0  0  0  0  0
   91.6790  101.4410  100.3700 C   0  0  0  0  0  0  0  0  0  0  0  0
   91.9020  100.5340  102.5830 N   0  0  0  0  0  0  0  0  0  0  0  0
   91.1300  100.8560  101.5100 C   0  0  0  0  0  0  0  0  0  0  0  0
   89.6280  100.6030  101.5580 C   0  0  0  0  0  0  0  0  0  0  0  0
   88.9040  101.7610  101.5720 F   0  0  0  0  0  0  0  0  0  0  0  0
   89.1820   99.9150  100.4630 F   0  0  0  0  0  0  0  0  0  0  0  0
   89.2060   99.8840  102.6360 F   0  0  0  0  0  0  0  0  0  0  0  0
  1  2  1  0  0  0  0
  3  2  2  0  0  0  0
  4  3  1  0  0  0  0
  5  4  2  0  0  0  0
  5  6  1  0  0  0  0
  6  1  2  0  0  0  0
  7  1  1  6  0  0  0
  7 11  1  0  0  0  0
  8  9  1  0  0  0  0
  8 13  1  1  0  0  0
 10  8  1  0  0  0  0
 11  9  1  0  0  0  0
 12  7  1  0  0  0  0
 12 10  1  0  0  0  0
 14 13  1  0  0  0  0
 14 15  1  0  0  0  0
 16 14  2  0  0  0  0
 17 18  1  0  0  0  0
 17  4  1  0  0  0  0
 19 17  2  0  0  0  0
 20 18  2  0  0  0  0
 21 22  2  0  0  0  0
 21 19  1  0  0  0  0
 22 20  1  0  0  0  0
 23 25  1  0  0  0  0
 23 22  1  0  0  0  0
 24 23  1  0  0  0  0
 25 27  1  0  0  0  0
 26 28  1  0  0  0  0
 26 25  2  0  0  0  0
 27 29  2  0  0  0  0
 28 30  2  0  0  0  0
 30 31  1  0  0  0  0
 30 29  1  0  0  0  0
 31 32  1  0  0  0  0
 31 34  1  0  0  0  0
 33 31  1  0  0  0  0
M  END
>  <minimizedAffinity>
-4.87998438

>  <CNNscore>
0.495075047

>  <CNNaffinity>
6.87269831

$$$$

 OpenBabel08282606023D

 34 37  0  0  1  0  0  0  0  0999 V2000
  101.2730  100.1170  106.0340 C   0  0  0  0  0  0  0  0  0  0  0  0
  100.7990   99.4670  104.8890 C   0  0  0  0  0  0  0  0  0  0  0  0
   99.6400   99.9130  104.2420 C   0  0  0  0  0  0  0  0  0  0  0  0
   98.9090  101.0160  104.7160 C   0  0  0  0  0  0  0  0  0  0  0  0
   99.4070  101.6720  105.8550 C   0  0  0  0  0  0  0  0  0  0  0  0
  100.5670  101.2310  106.5040 C   0  0  0  0  0  0  0  0  0  0  0  0
  102.5190   99.6440  106.7680 C   0  0  1  0  0  0  0  0  0  0  0  0
  103.4050   97.8120  109.0310 C   0  0  1  0  0  0  0  0  0  0  0  0
  102.3460   98.9170  109.2160 C   0  0  0  0  0  0  0  0  0  0  0  0
  103.8140   97.6330  107.5540 C   0  0  0  0  0  0  0  0  0  0  0  0
  102.5360  100.0840  108.2480 C   0  0  0  0  0  0  0  0  0  0  0  0
  102.7400   98.1300  106.5920 C   0  0  0  0  0  0  0  0  0  0  0  0
  104.6360   98.0810  109.9110 C   0  0  0  0  0  0  0  0  0  0  0  0
  105.9380   98.3720  109.1540 C   0  0  0  0  0  0  0  0  0  0  0  0
  107.0070   98.1580  109.7890 O   0  0  0  0  0  0  0  0  0  0  0  0
  105.7730   98.8090  107.9790 O   0  0  0  0  0  0  0  0  0  0  0  0
   97.6710  101.4510  104.0370 C   0  0  0  0  0  0  0  0  0  0  0  0
   97.4480  101.2580  102.6750 C   0  0  0  0  0  0  0  0  0  0  0  0
   96.7510  102.0760  104.8120 N   0  0  0  0  0  0  0  0  0  0  0  0
   96.2550  101.7040  102.1000 C   0  0  0  0  0  0  0  0  0  0  0  0
   95.6010  102.4950  104.2260 C   0  0  0  0  0  0  0  0  0  0  0  0
   95.2910  102.3470  102.8770 C   0  0  0  0  0  0  0  0  0  0  0  0
   94.0840  102.7460  102.2860 N   0  0  0  0  0  0  0  0  0  0  0  0
   93.9490  103.7520  102.2680 H   0  0  0  0  0  0  0  0  0  0  0  0
   93.0410  102.0150  101.7020 C   0  0  0  0  0  0  0  0  0  0  0  0
   91.9690  102.6970  101.1190 C   0  0  0  0  0  0  0  0  0  0  0  0
   92.9510  100.6250  101.7020 C   0  0  0  0  0  0  0  0  0  0  0  0
   90.8960  101.9950  100.5670 C   0  0  0  0  0  0  0  0  0  0  0  0
   91.9240   99.9110  101.1730 N   0  0  0  0  0  0  0  0  0  0  0  0
   90.9010  100.6010  100.6010 C   0  0  0  0  0  0  0  0  0  0  0  0
   89.7180   99.8450  100.0080 C   0  0  0  0  0  0  0  0  0  0  0  0
   88.9070   99.3090  100.9690 F   0  0  0  0  0  0  0  0  0  0  0  0
   88.9040  100.6540   99.2630 F   0  0  0  0  0  0  0  0  0  0  0  0
   90.0570   98.8130   99.1860 F   0  0  0  0  0  0  0  0  0  0  0  0
  1  6  1  0  0  0  0
  2  1  2  0  0  0  0
  3  4  2  0  0  0  0
  3  2  1  0  0  0  0
  4  5  1  0  0  0  0
  5  6  2  0  0  0  0
  7  1  1  1  0  0  0
  7 11  1  0  0  0  0
  8  9  1  0  0  0  0
  8 13  1  1  0  0  0
 10  8  1  0  0  0  0
 11  9  1  0  0  0  0
 12  7  1  0  0  0  0
 12 10  1  0  0  0  0
 14 15  1  0  0  0  0
 14 13  1  0  0  0  0
 16 14  2  0  0  0  0
 17  4  1  0  0  0  0
 17 19  1  0  0  0  0
 18 17  2  0  0  0  0
 20 18  1  0  0  0  0
 20 22  2  0  0  0  0
 21 19  2  0  0  0  0
 22 21  1  0  0  0  0
 23 22  1  0  0  0  0
 24 23  1  0  0  0  0
 25 23  1  0  0  0  0
 26 25  2  0  0  0  0
 27 25  1  0  0  0  0
 28 30  2  0  0  0  0
 28 26  1  0  0  0  0
 29 27  2  0  0  0  0
 30 29  1  0  0  0  0
 31 30  1  0  0  0  0
 31 32  1  0  0  0  0
 33 31  1  0  0  0  0
 34 31  1  0  0  0  0
M  END
>  <minimizedAffinity>
-5.71423435

>  <CNNscore>
0.494826287

>  <CNNaffinity>
6.75983572

$$$$

 OpenBabel08282606023D

 34 37  0  0  1  0  0  0  0  0999 V2000
  101.5030   99.5590  105.8720 C   0  0  0  0  0  0  0  0  0  0  0  0
  101.4510   98.9120  104.6330 C   0  0  0  0  0  0  0  0  0  0  0  0
  100.3600   99.0950  103.7750 C   0  0  0  0  0  0  0  0  0  0  0  0
   99.2780   99.9220  104.1260 C   0  0  0  0  0  0  0  0  0  0  0  0
   99.3520  100.5810  105.3650 C   0  0  0  0  0  0  0  0  0  0  0  0
  100.4430  100.4030  106.2240 C   0  0  0  0  0  0  0  0  0  0  0  0
  102.6690   99.3640  106.8310 C   0  0  1  0  0  0  0  0  0  0  0  0
  103.5180   97.7340  109.2560 C   0  0  1  0  0  0  0  0  0  0  0  0
  102.2200   98.5660  109.2210 C   0  0  0  0  0  0  0  0  0  0  0  0
  104.2190   97.6830  107.8830 C   0  0  0  0  0  0  0  0  0  0  0  0
  102.3150   99.7660  108.2800 C   0  0  0  0  0  0  0  0  0  0  0  0
  103.2550   97.9440  106.7310 C   0  0  0  0  0  0  0  0  0  0  0  0
  104.4740   98.2560  110.3410 C   0  0  0  0  0  0  0  0  0  0  0  0
  105.9600   98.2650  109.9610 C   0  0  0  0  0  0  0  0  0  0  0  0
  106.7770   98.2240  110.9220 O   0  0  0  0  0  0  0  0  0  0  0  0
  106.1810   98.3290  108.7180 O   0  0  0  0  0  0  0  0  0  0  0  0
   98.1200  100.0770  103.2210 C   0  0  0  0  0  0  0  0  0  0  0  0
   96.8020   99.9370  103.6500 C   0  0  0  0  0  0  0  0  0  0  0  0
   98.4060  100.3460  101.9230 N   0  0  0  0  0  0  0  0  0  0  0  0
   95.7580  100.0890  102.7340 C   0  0  0  0  0  0  0  0  0  0  0  0
   97.3710  100.4910  101.0590 C   0  0  0  0  0  0  0  0  0  0  0  0
   96.0260  100.3720  101.3940 C   0  0  0  0  0  0  0  0  0  0  0  0
   94.9600  100.5620  100.5040 N   0  0  0  0  0  0  0  0  0  0  0  0
   95.1670  100.2860   99.5490 H   0  0  0  0  0  0  0  0  0  0  0  0
   93.6580  101.0470  100.6920 C   0  0  0  0  0  0  0  0  0  0  0  0
   92.6290  100.5850   99.8680 C   0  0  0  0  0  0  0  0  0  0  0  0
   93.3030  102.0190  101.6240 C   0  0  0  0  0  0  0  0  0  0  0  0
   91.3300  101.0810  100.0050 C   0  0  0  0  0  0  0  0  0  0  0  0
   92.0510  102.5220  101.7860 N   0  0  0  0  0  0  0  0  0  0  0  0
   91.0670  102.0450  100.9770 C   0  0  0  0  0  0  0  0  0  0  0  0
   89.6500  102.5900  101.1090 C   0  0  0  0  0  0  0  0  0  0  0  0
   88.9300  101.9440  102.0740 F   0  0  0  0  0  0  0  0  0  0  0  0
   89.6320  103.9090  101.4720 F   0  0  0  0  0  0  0  0  0  0  0  0
   88.9040  102.5150   99.9710 F   0  0  0  0  0  0  0  0  0  0  0  0
  1  6  1  0  0  0  0
  2  1  2  0  0  0  0
  3  4  2  0  0  0  0
  3  2  1  0  0  0  0
  4  5  1  0  0  0  0
  5  6  2  0  0  0  0
  7  1  1  6  0  0  0
  7 11  1  0  0  0  0
  8 13  1  1  0  0  0
  9  8  1  0  0  0  0
 10  8  1  0  0  0  0
 11  9  1  0  0  0  0
 12  7  1  0  0  0  0
 12 10  1  0  0  0  0
 14 13  1  0  0  0  0
 14 15  1  0  0  0  0
 16 14  2  0  0  0  0
 17 18  1  0  0  0  0
 17  4  1  0  0  0  0
 19 17  2  0  0  0  0
 20 18  2  0  0  0  0
 21 22  2  0  0  0  0
 21 19  1  0  0  0  0
 22 20  1  0  0  0  0
 23 25  1  0  0  0  0
 23 22  1  0  0  0  0
 24 23  1  0  0  0  0
 25 27  1  0  0  0  0
 26 28  1  0  0  0  0
 26 25  2  0  0  0  0
 27 29  2  0  0  0  0
 28 30  2  0  0  0  0
 30 31  1  0  0  0  0
 30 29  1  0  0  0  0
 31 33  1  0  0  0  0
 31 32  1  0  0  0  0
 34 31  1  0  0  0  0
M  END
>  <minimizedAffinity>
-5.16154099

>  <CNNscore>
0.490395278

>  <CNNaffinity>
6.92586374

$$$$
