
 OpenBabel08282616403D

 30 33  0  0  0  0  0  0  0  0999 V2000
   98.8110  101.0710  104.2850 N   0  0  0  0  0  0  0  0  0  0  0  0
   98.1910   99.8140  103.8080 C   0  0  0  0  0  0  0  0  0  0  0  0
   97.0300  100.1120  102.8430 C   0  0  0  0  0  0  0  0  0  0  0  0
   95.9230  100.8700  103.5270 N   0  0  0  0  0  0  0  0  0  0  0  0
   96.4310  101.7730  104.6210 C   0  0  0  0  0  0  0  0  0  0  0  0
   97.8860  102.2190  104.3960 C   0  0  0  0  0  0  0  0  0  0  0  0
   99.7260  100.8380  105.3330 C   0  0  0  0  0  0  0  0  0  0  0  0
  103.1190   98.9020  107.8280 C   0  0  0  0  0  0  0  0  0  0  0  0
  102.6710   98.6450  106.5440 C   0  0  0  0  0  0  0  0  0  0  0  0
  102.3840   99.9260  108.3690 O   0  0  0  0  0  0  0  0  0  0  0  0
  101.6010   99.5440  106.2820 C   0  0  0  0  0  0  0  0  0  0  0  0
  101.4760  100.3060  107.4350 C   0  0  0  0  0  0  0  0  0  0  0  0
  100.7120   99.8250  105.2280 C   0  0  0  0  0  0  0  0  0  0  0  0
  100.5370  101.3190  107.6050 C   0  0  0  0  0  0  0  0  0  0  0  0
   99.6660  101.5660  106.5350 C   0  0  0  0  0  0  0  0  0  0  0  0
  100.9450   98.8720  103.8160 Cl  0  0  0  0  0  0  0  0  0  0  0  0
  104.2960   98.1250  108.5490 C   0  0  0  0  0  0  0  0  0  0  0  0
  103.9650   97.2430  109.3980 O   0  0  0  0  0  0  0  0  0  0  0  0
  105.4750   98.4540  108.2080 O   0  0  0  0  0  0  0  0  0  0  0  0
   94.8010  101.6230  102.4810 S   0  0  0  0  0  0  0  0  0  0  0  0
   95.3470  101.4510  101.1540 O   0  0  0  0  0  0  0  0  0  0  0  0
   94.5280  102.9570  102.9760 O   0  0  0  0  0  0  0  0  0  0  0  0
   93.3190  100.6770  102.7020 C   0  0  0  0  0  0  0  0  0  0  0  0
   93.2310   99.6300  103.6300 C   0  0  0  0  0  0  0  0  0  0  0  0
   92.1970  100.9730  101.9060 C   0  0  0  0  0  0  0  0  0  0  0  0
   92.0250   98.9240  103.7790 C   0  0  0  0  0  0  0  0  0  0  0  0
   91.0010  100.2570  102.0690 C   0  0  0  0  0  0  0  0  0  0  0  0
   90.9120   99.2380  103.0070 C   0  0  0  0  0  0  0  0  0  0  0  0
   94.5130   99.0620  104.6370 Cl  0  0  0  0  0  0  0  0  0  0  0  0
   92.1500  102.1960  100.6810 Cl  0  0  0  0  0  0  0  0  0  0  0  0
  1  6  1  0  0  0  0
  1  7  1  0  0  0  0
  2  1  1  0  0  0  0
  3  4  1  0  0  0  0
  3  2  1  0  0  0  0
  4  5  1  0  0  0  0
  6  5  1  0  0  0  0
  7 15  1  0  0  0  0
  8 10  1  0  0  0  0
  8 17  1  0  0  0  0
  9  8  2  0  0  0  0
 11  9  1  0  0  0  0
 11 12  2  0  0  0  0
 12 14  1  0  0  0  0
 12 10  1  0  0  0  0
 13  7  2  0  0  0  0
 13 11  1  0  0  0  0
 15 14  2  0  0  0  0
 16 13  1  0  0  0  0
 17 18  1  0  0  0  0
 19 17  2  0  0  0  0
 20 23  1  0  0  0  0
 20 22  2  0  0  0  0
 20  4  1  0  0  0  0
 21 20  2  0  0  0  0
 23 24  1  0  0  0  0
 24 26  2  0  0  0  0
 24 29  1  0  0  0  0
 25 27  1  0  0  0  0
 25 23  2  0  0  0  0
 27 28  2  0  0  0  0
 28 26  1  0  0  0  0
 30 25  1  0  0  0  0
M  END
>  <minimizedAffinity>
-8.86644459

>  <CNNscore>
0.62453723

>  <CNNaffinity>
6.67304754

$$$$

 OpenBabel08282616403D

 30 33  0  0  0  0  0  0  0  0999 V2000
   99.5680  101.7910  105.6250 N   0  0  0  0  0  0  0  0  0  0  0  0
   98.2460  101.3260  105.1480 C   0  0  0  0  0  0  0  0  0  0  0  0
   97.2140  102.4660  105.2080 C   0  0  0  0  0  0  0  0  0  0  0  0
   96.9870  102.9340  106.6220 N   0  0  0  0  0  0  0  0  0  0  0  0
   98.2180  102.7950  107.4810 C   0  0  0  0  0  0  0  0  0  0  0  0
   99.5210  102.8430  106.6640 C   0  0  0  0  0  0  0  0  0  0  0  0
  100.4710  100.7210  105.7910 C   0  0  0  0  0  0  0  0  0  0  0  0
  104.0530   98.2200  107.3420 C   0  0  0  0  0  0  0  0  0  0  0  0
  103.5510   99.4440  107.7500 C   0  0  0  0  0  0  0  0  0  0  0  0
  103.2920   97.7380  106.3090 O   0  0  0  0  0  0  0  0  0  0  0  0
  102.4320   99.7380  106.9230 C   0  0  0  0  0  0  0  0  0  0  0  0
  102.3200   98.6540  106.0640 C   0  0  0  0  0  0  0  0  0  0  0  0
  101.4900  100.7740  106.7750 C   0  0  0  0  0  0  0  0  0  0  0  0
  101.3420   98.5320  105.0810 C   0  0  0  0  0  0  0  0  0  0  0  0
  100.4260   99.5860  104.9610 C   0  0  0  0  0  0  0  0  0  0  0  0
  101.6620  102.0680  107.8940 Cl  0  0  0  0  0  0  0  0  0  0  0  0
  105.3150   97.5030  107.9760 C   0  0  0  0  0  0  0  0  0  0  0  0
  105.7190   96.4440  107.4060 O   0  0  0  0  0  0  0  0  0  0  0  0
  105.8150   98.0580  109.0040 O   0  0  0  0  0  0  0  0  0  0  0  0
   96.2120  104.4490  106.7730 S   0  0  0  0  0  0  0  0  0  0  0  0
   95.6490  104.4520  108.1040 O   0  0  0  0  0  0  0  0  0  0  0  0
   95.3460  104.6430  105.6290 O   0  0  0  0  0  0  0  0  0  0  0  0
   97.5350  105.6160  106.6230 C   0  0  0  0  0  0  0  0  0  0  0  0
   97.8970  106.1850  105.3940 C   0  0  0  0  0  0  0  0  0  0  0  0
   98.2640  105.9720  107.7750 C   0  0  0  0  0  0  0  0  0  0  0  0
   98.9430  107.1210  105.3350 C   0  0  0  0  0  0  0  0  0  0  0  0
   99.3050  106.9090  107.6950 C   0  0  0  0  0  0  0  0  0  0  0  0
   99.6420  107.4880  106.4790 C   0  0  0  0  0  0  0  0  0  0  0  0
   97.1850  105.8200  103.8640 Cl  0  0  0  0  0  0  0  0  0  0  0  0
   97.9840  105.3290  109.3580 Cl  0  0  0  0  0  0  0  0  0  0  0  0
  1  7  1  0  0  0  0
  1  6  1  0  0  0  0
  2  3  1  0  0  0  0
  2  1  1  0  0  0  0
  3  4  1  0  0  0  0
  4 20  1  0  0  0  0
  4  5  1  0  0  0  0
  6  5  1  0  0  0  0
  7 13  1  0  0  0  0
  8  9  2  0  0  0  0
  8 17  1  0  0  0  0
 10  8  1  0  0  0  0
 11  9  1  0  0  0  0
 12 10  1  0  0  0  0
 12 11  1  0  0  0  0
 13 11  2  0  0  0  0
 13 16  1  0  0  0  0
 14 12  2  0  0  0  0
 15 14  1  0  0  0  0
 15  7  2  0  0  0  0
 17 19  1  0  0  0  0
 18 17  2  0  0  0  0
 20 21  2  0  0  0  0
 22 20  2  0  0  0  0
 23 20  1  0  0  0  0
 23 25  1  0  0  0  0
 24 23  2  0  0  0  0
 25 30  1  0  0  0  0
 26 24  1  0  0  0  0
 26 28  2  0  0  0  0
 27 25  2  0  0  0  0
 28 27  1  0  0  0  0
 29 24  1  0  0  0  0
M  END
>  <minimizedAffinity>
-8.62339497

>  <CNNscore>
0.620674908

>  <CNNaffinity>
7.48560476

$$$$

 OpenBabel08282616403D

 30 33  0  0  0  0  0  0  0  0999 V2000
   99.3440  101.9800  104.7360 N   0  0  0  0  0  0  0  0  0  0  0  0
   99.2580  101.0000  103.6300 C   0  0  0  0  0  0  0  0  0  0  0  0
   98.0650  101.3200  102.7120 C   0  0  0  0  0  0  0  0  0  0  0  0
   96.7550  101.2090  103.4480 N   0  0  0  0  0  0  0  0  0  0  0  0
   96.8810  101.5620  104.9070 C   0  0  0  0  0  0  0  0  0  0  0  0
   98.0460  102.5270  105.1870 C   0  0  0  0  0  0  0  0  0  0  0  0
  100.2850  101.5870  105.7110 C   0  0  0  0  0  0  0  0  0  0  0  0
  103.3660   99.0140  108.0290 C   0  0  0  0  0  0  0  0  0  0  0  0
  102.7320   98.8050  106.8170 C   0  0  0  0  0  0  0  0  0  0  0  0
  102.9620  100.2150  108.5520 O   0  0  0  0  0  0  0  0  0  0  0  0
  101.8870   99.9240  106.5840 C   0  0  0  0  0  0  0  0  0  0  0  0
  102.0750  100.7560  107.6790 C   0  0  0  0  0  0  0  0  0  0  0  0
  100.9810  100.3580  105.5970 C   0  0  0  0  0  0  0  0  0  0  0  0
  101.4320  101.9780  107.8530 C   0  0  0  0  0  0  0  0  0  0  0  0
  100.5330  102.3730  106.8510 C   0  0  0  0  0  0  0  0  0  0  0  0
  100.8230   99.3000  104.2500 Cl  0  0  0  0  0  0  0  0  0  0  0  0
  104.3940   98.0110  108.6980 C   0  0  0  0  0  0  0  0  0  0  0  0
  104.4600   98.0190  109.9650 O   0  0  0  0  0  0  0  0  0  0  0  0
  105.0610   97.2810  107.9010 O   0  0  0  0  0  0  0  0  0  0  0  0
   95.4210  101.9450  102.6750 S   0  0  0  0  0  0  0  0  0  0  0  0
   95.9900  102.7210  101.5970 O   0  0  0  0  0  0  0  0  0  0  0  0
   94.6080  102.6020  103.6780 O   0  0  0  0  0  0  0  0  0  0  0  0
   94.4800  100.5750  102.0640 C   0  0  0  0  0  0  0  0  0  0  0  0
   94.9180   99.2490  102.1910 C   0  0  0  0  0  0  0  0  0  0  0  0
   93.2580  100.8250  101.4100 C   0  0  0  0  0  0  0  0  0  0  0  0
   94.1230   98.1980  101.7050 C   0  0  0  0  0  0  0  0  0  0  0  0
   92.4780   99.7610  100.9320 C   0  0  0  0  0  0  0  0  0  0  0  0
   92.9050   98.4490  101.0830 C   0  0  0  0  0  0  0  0  0  0  0  0
   96.4160   98.7430  102.8830 Cl  0  0  0  0  0  0  0  0  0  0  0  0
   92.5950  102.3990  101.1240 Cl  0  0  0  0  0  0  0  0  0  0  0  0
  1  6  1  0  0  0  0
  1  7  1  0  0  0  0
  2  1  1  0  0  0  0
  3  4  1  0  0  0  0
  3  2  1  0  0  0  0
  4  5  1  0  0  0  0
  5  6  1  0  0  0  0
  7 15  1  0  0  0  0
  8 10  1  0  0  0  0
  8 17  1  0  0  0  0
  9  8  2  0  0  0  0
 11  9  1  0  0  0  0
 11 12  2  0  0  0  0
 12 14  1  0  0  0  0
 12 10  1  0  0  0  0
 13  7  2  0  0  0  0
 13 11  1  0  0  0  0
 15 14  2  0  0  0  0
 16 13  1  0  0  0  0
 17 18  1  0  0  0  0
 19 17  2  0  0  0  0
 20  4  1  0  0  0  0
 20 22  2  0  0  0  0
 21 20  2  0  0  0  0
 23 24  1  0  0  0  0
 23 20  1  0  0  0  0
 24 29  1  0  0  0  0
 25 23  2  0  0  0  0
 26 24  2  0  0  0  0
 27 28  2  0  0  0  0
 27 25  1  0  0  0  0
 28 26  1  0  0  0  0
 30 25  1  0  0  0  0
M  END
>  <minimizedAffinity>
-8.76073551

>  <CNNscore>
0.618174732

>  <CNNaffinity>
6.91350412

$$$$

 OpenBabel08282616403D

 30 33  0  0  0  0  0  0  0  0999 V2000
   98.7230  100.4840  103.9270 N   0  0  0  0  0  0  0  0  0  0  0  0
   97.9640   99.2180  103.8080 C   0  0  0  0  0  0  0  0  0  0  0  0
   96.8600   99.3430  102.7440 C   0  0  0  0  0  0  0  0  0  0  0  0
   95.8410  100.3850  103.1240 N   0  0  0  0  0  0  0  0  0  0  0  0
   96.4380  101.5100  103.9300 C   0  0  0  0  0  0  0  0  0  0  0  0
   97.9380  101.7080  103.6540 C   0  0  0  0  0  0  0  0  0  0  0  0
   99.5890  100.4740  105.0400 C   0  0  0  0  0  0  0  0  0  0  0  0
  103.0050   99.2200  107.9110 C   0  0  0  0  0  0  0  0  0  0  0  0
  102.6680   98.7730  106.6450 C   0  0  0  0  0  0  0  0  0  0  0  0
  102.1340  100.2080  108.2910 O   0  0  0  0  0  0  0  0  0  0  0  0
  101.5280   99.5110  106.2270 C   0  0  0  0  0  0  0  0  0  0  0  0
  101.2500  100.3780  107.2750 C   0  0  0  0  0  0  0  0  0  0  0  0
  100.6810   99.5720  105.1030 C   0  0  0  0  0  0  0  0  0  0  0  0
  100.2010  101.2920  107.2780 C   0  0  0  0  0  0  0  0  0  0  0  0
   99.3770  101.3190  106.1430 C   0  0  0  0  0  0  0  0  0  0  0  0
  101.1020   98.5010  103.8260 Cl  0  0  0  0  0  0  0  0  0  0  0  0
  104.2100   98.6640  108.7760 C   0  0  0  0  0  0  0  0  0  0  0  0
  103.9590   98.3630  109.9820 O   0  0  0  0  0  0  0  0  0  0  0  0
  105.3280   98.5660  108.1800 O   0  0  0  0  0  0  0  0  0  0  0  0
   94.8300  100.9130  101.8520 S   0  0  0  0  0  0  0  0  0  0  0  0
   95.2660  100.1720  100.6910 O   0  0  0  0  0  0  0  0  0  0  0  0
   94.8390  102.3610  101.8220 O   0  0  0  0  0  0  0  0  0  0  0  0
   93.2090  100.4180  102.3690 C   0  0  0  0  0  0  0  0  0  0  0  0
   92.0520  100.8030  101.6780 C   0  0  0  0  0  0  0  0  0  0  0  0
   93.0760   99.6250  103.5250 C   0  0  0  0  0  0  0  0  0  0  0  0
   90.7920  100.3650  102.1200 C   0  0  0  0  0  0  0  0  0  0  0  0
   91.8090   99.1980  103.9510 C   0  0  0  0  0  0  0  0  0  0  0  0
   90.6690   99.5620  103.2480 C   0  0  0  0  0  0  0  0  0  0  0  0
   91.9990  101.8320  100.2930 Cl  0  0  0  0  0  0  0  0  0  0  0  0
   94.3920   99.1040  104.5230 Cl  0  0  0  0  0  0  0  0  0  0  0  0
  1  7  1  0  0  0  0
  2  1  1  0  0  0  0
  3  4  1  0  0  0  0
  3  2  1  0  0  0  0
  4  5  1  0  0  0  0
  6  1  1  0  0  0  0
  6  5  1  0  0  0  0
  7 13  2  0  0  0  0
  7 15  1  0  0  0  0
  8 10  1  0  0  0  0
  8 17  1  0  0  0  0
  9  8  2  0  0  0  0
 11  9  1  0  0  0  0
 11 12  2  0  0  0  0
 12 14  1  0  0  0  0
 12 10  1  0  0  0  0
 13 11  1  0  0  0  0
 15 14  2  0  0  0  0
 16 13  1  0  0  0  0
 17 18  1  0  0  0  0
 19 17  2  0  0  0  0
 20 23  1  0  0  0  0
 20  4  1  0  0  0  0
 21 20  2  0  0  0  0
 22 20  2  0  0  0  0
 23 25  1  0  0  0  0
 24 26  1  0  0  0  0
 24 23  2  0  0  0  0
 25 27  2  0  0  0  0
 25 30  1  0  0  0  0
 26 28  2  0  0  0  0
 28 27  1  0  0  0  0
 29 24  1  0  0  0  0
M  END
>  <minimizedAffinity>
-8.54915047

>  <CNNscore>
0.599218965

>  <CNNaffinity>
6.60838079

$$$$

 OpenBabel08282616403D

 30 33  0  0  0  0  0  0  0  0999 V2000
   99.5590  101.8650  104.0600 N   0  0  0  0  0  0  0  0  0  0  0  0
   99.1280  100.7060  103.2460 C   0  0  0  0  0  0  0  0  0  0  0  0
   97.8180  101.0210  102.5020 C   0  0  0  0  0  0  0  0  0  0  0  0
   96.6860  101.2800  103.4610 N   0  0  0  0  0  0  0  0  0  0  0  0
   97.1530  101.9000  104.7530 C   0  0  0  0  0  0  0  0  0  0  0  0
   98.4580  102.6980  104.5910 C   0  0  0  0  0  0  0  0  0  0  0  0
  100.6270  101.5320  104.9200 C   0  0  0  0  0  0  0  0  0  0  0  0
  103.3130   99.1180  107.8260 C   0  0  0  0  0  0  0  0  0  0  0  0
  102.1950   98.7490  107.0990 C   0  0  0  0  0  0  0  0  0  0  0  0
  103.6070  100.4330  107.5710 O   0  0  0  0  0  0  0  0  0  0  0  0
  101.7710   99.8920  106.3670 C   0  0  0  0  0  0  0  0  0  0  0  0
  102.6780  100.8900  106.6940 C   0  0  0  0  0  0  0  0  0  0  0  0
  100.7410  100.2300  105.4680 C   0  0  0  0  0  0  0  0  0  0  0  0
  102.6310  102.1860  106.1890 C   0  0  0  0  0  0  0  0  0  0  0  0
  101.5880  102.4860  105.3010 C   0  0  0  0  0  0  0  0  0  0  0  0
   99.6750   98.9390  105.0760 Cl  0  0  0  0  0  0  0  0  0  0  0  0
  104.1150   98.1620  108.8010 C   0  0  0  0  0  0  0  0  0  0  0  0
  103.9950   98.3810  110.0450 O   0  0  0  0  0  0  0  0  0  0  0  0
  104.8080   97.2530  108.2480 O   0  0  0  0  0  0  0  0  0  0  0  0
   95.3190  102.0500  102.7840 S   0  0  0  0  0  0  0  0  0  0  0  0
   95.6780  102.3160  101.4090 O   0  0  0  0  0  0  0  0  0  0  0  0
   94.9280  103.1450  103.6470 O   0  0  0  0  0  0  0  0  0  0  0  0
   94.0460  100.8230  102.8970 C   0  0  0  0  0  0  0  0  0  0  0  0
   94.1940   99.6590  103.6640 C   0  0  0  0  0  0  0  0  0  0  0  0
   92.8500  101.0140  102.1780 C   0  0  0  0  0  0  0  0  0  0  0  0
   93.1440   98.7270  103.7350 C   0  0  0  0  0  0  0  0  0  0  0  0
   91.8140  100.0720  102.2620 C   0  0  0  0  0  0  0  0  0  0  0  0
   91.9560   98.9330  103.0430 C   0  0  0  0  0  0  0  0  0  0  0  0
   95.6050   99.2050  104.5480 Cl  0  0  0  0  0  0  0  0  0  0  0  0
   92.5230  102.3660  101.1470 Cl  0  0  0  0  0  0  0  0  0  0  0  0
  1  6  1  0  0  0  0
  1  7  1  0  0  0  0
  2  1  1  0  0  0  0
  3  2  1  0  0  0  0
  3  4  1  0  0  0  0
  4  5  1  0  0  0  0
  6  5  1  0  0  0  0
  7 15  2  0  0  0  0
  7 13  1  0  0  0  0
  8 17  1  0  0  0  0
  9  8  2  0  0  0  0
 10  8  1  0  0  0  0
 11 12  1  0  0  0  0
 11  9  1  0  0  0  0
 12 10  1  0  0  0  0
 13 11  2  0  0  0  0
 14 12  2  0  0  0  0
 15 14  1  0  0  0  0
 16 13  1  0  0  0  0
 17 18  1  0  0  0  0
 19 17  2  0  0  0  0
 20 23  1  0  0  0  0
 20  4  1  0  0  0  0
 20 22  2  0  0  0  0
 21 20  2  0  0  0  0
 23 24  1  0  0  0  0
 24 26  2  0  0  0  0
 24 29  1  0  0  0  0
 25 27  1  0  0  0  0
 25 23  2  0  0  0  0
 27 28  2  0  0  0  0
 28 26  1  0  0  0  0
 30 25  1  0  0  0  0
M  END
>  <minimizedAffinity>
-9.14144516

>  <CNNscore>
0.567272663

>  <CNNaffinity>
6.80261469

$$$$

 OpenBabel08282616403D

 30 33  0  0  0  0  0  0  0  0999 V2000
   99.0210  101.1660  104.5640 N   0  0  0  0  0  0  0  0  0  0  0  0
   98.3660   99.9290  104.0810 C   0  0  0  0  0  0  0  0  0  0  0  0
   97.1930  100.2650  103.1440 C   0  0  0  0  0  0  0  0  0  0  0  0
   96.1150  101.0340  103.8600 N   0  0  0  0  0  0  0  0  0  0  0  0
   96.6620  101.9110  104.9580 C   0  0  0  0  0  0  0  0  0  0  0  0
   98.1220  102.3310  104.7100 C   0  0  0  0  0  0  0  0  0  0  0  0
   99.9500  100.9000  105.5910 C   0  0  0  0  0  0  0  0  0  0  0  0
  103.3070   98.8220  108.0220 C   0  0  0  0  0  0  0  0  0  0  0  0
  102.8110   98.5720  106.7550 C   0  0  0  0  0  0  0  0  0  0  0  0
  102.6410   99.8890  108.5680 O   0  0  0  0  0  0  0  0  0  0  0  0
  101.7820   99.5220  106.5080 C   0  0  0  0  0  0  0  0  0  0  0  0
  101.7280  100.3040  107.6530 C   0  0  0  0  0  0  0  0  0  0  0  0
  100.8800   99.8350  105.4740 C   0  0  0  0  0  0  0  0  0  0  0  0
  100.8480  101.3670  107.8340 C   0  0  0  0  0  0  0  0  0  0  0  0
   99.9610  101.6450  106.7840 C   0  0  0  0  0  0  0  0  0  0  0  0
  101.0240   98.8530  104.0700 Cl  0  0  0  0  0  0  0  0  0  0  0  0
  104.4610   97.9940  108.7230 C   0  0  0  0  0  0  0  0  0  0  0  0
  105.6540   98.3250  108.4440 O   0  0  0  0  0  0  0  0  0  0  0  0
  104.0870   97.0690  109.5080 O   0  0  0  0  0  0  0  0  0  0  0  0
   94.9880  101.8250  102.8480 S   0  0  0  0  0  0  0  0  0  0  0  0
   95.6360  101.9120  101.5590 O   0  0  0  0  0  0  0  0  0  0  0  0
   94.5400  103.0340  103.5070 O   0  0  0  0  0  0  0  0  0  0  0  0
   93.6070  100.7160  102.8090 C   0  0  0  0  0  0  0  0  0  0  0  0
   92.6050  100.8020  101.8320 C   0  0  0  0  0  0  0  0  0  0  0  0
   93.5010   99.7250  103.8030 C   0  0  0  0  0  0  0  0  0  0  0  0
   91.5410   99.8840  101.8360 C   0  0  0  0  0  0  0  0  0  0  0  0
   92.4310   98.8170  103.7900 C   0  0  0  0  0  0  0  0  0  0  0  0
   91.4550   98.8920  102.8060 C   0  0  0  0  0  0  0  0  0  0  0  0
   92.5120  101.9900  100.5830 Cl  0  0  0  0  0  0  0  0  0  0  0  0
   94.6190   99.5110  105.1080 Cl  0  0  0  0  0  0  0  0  0  0  0  0
  1  6  1  0  0  0  0
  1  7  1  0  0  0  0
  2  1  1  0  0  0  0
  3  4  1  0  0  0  0
  3  2  1  0  0  0  0
  4  5  1  0  0  0  0
  6  5  1  0  0  0  0
  7 15  1  0  0  0  0
  8 10  1  0  0  0  0
  8 17  1  0  0  0  0
  9  8  2  0  0  0  0
 11  9  1  0  0  0  0
 11 12  2  0  0  0  0
 12 14  1  0  0  0  0
 12 10  1  0  0  0  0
 13  7  2  0  0  0  0
 13 11  1  0  0  0  0
 15 14  2  0  0  0  0
 16 13  1  0  0  0  0
 17 19  1  0  0  0  0
 18 17  2  0  0  0  0
 20 22  2  0  0  0  0
 20  4  1  0  0  0  0
 21 20  2  0  0  0  0
 23 20  1  0  0  0  0
 23 25  1  0  0  0  0
 24 26  1  0  0  0  0
 24 23  2  0  0  0  0
 25 30  1  0  0  0  0
 26 28  2  0  0  0  0
 27 25  2  0  0  0  0
 28 27  1  0  0  0  0
 29 24  1  0  0  0  0
M  END
>  <minimizedAffinity>
-8.55344582

>  <CNNscore>
0.566350341

>  <CNNaffinity>
6.72452593

$$$$

 OpenBabel08282616403D

 30 33  0  0  0  0  0  0  0  0999 V2000
   98.8700  101.4460  103.3380 N   0  0  0  0  0  0  0  0  0  0  0  0
   98.4330  100.1240  102.8350 C   0  0  0  0  0  0  0  0  0  0  0  0
   97.0820  100.2390  102.1070 C   0  0  0  0  0  0  0  0  0  0  0  0
   95.9890  100.6940  103.0390 N   0  0  0  0  0  0  0  0  0  0  0  0
   96.4990  101.6020  104.1280 C   0  0  0  0  0  0  0  0  0  0  0  0
   97.7730  102.3610  103.7210 C   0  0  0  0  0  0  0  0  0  0  0  0
   99.9860  101.3370  104.1950 C   0  0  0  0  0  0  0  0  0  0  0  0
  102.9100   99.6580  107.3770 C   0  0  0  0  0  0  0  0  0  0  0  0
  101.7890   99.1020  106.7840 C   0  0  0  0  0  0  0  0  0  0  0  0
  103.1180  100.9130  106.8640 O   0  0  0  0  0  0  0  0  0  0  0  0
  101.2740  100.0610  105.8710 C   0  0  0  0  0  0  0  0  0  0  0  0
  102.1330  101.1470  105.9610 C   0  0  0  0  0  0  0  0  0  0  0  0
  100.1950  100.1700  104.9730 C   0  0  0  0  0  0  0  0  0  0  0  0
  101.9930  102.3190  105.2230 C   0  0  0  0  0  0  0  0  0  0  0  0
  100.9030  102.3920  104.3440 C   0  0  0  0  0  0  0  0  0  0  0  0
   99.1910   98.7770  104.8820 Cl  0  0  0  0  0  0  0  0  0  0  0  0
  103.8000   98.9470  108.4760 C   0  0  0  0  0  0  0  0  0  0  0  0
  103.3330   98.9090  109.6550 O   0  0  0  0  0  0  0  0  0  0  0  0
  104.9080   98.4710  108.0770 O   0  0  0  0  0  0  0  0  0  0  0  0
   94.5710  101.2660  102.2750 S   0  0  0  0  0  0  0  0  0  0  0  0
   94.7760  101.0160  100.8660 O   0  0  0  0  0  0  0  0  0  0  0  0
   94.3090  102.6140  102.7330 O   0  0  0  0  0  0  0  0  0  0  0  0
   93.2910  100.2370  102.9390 C   0  0  0  0  0  0  0  0  0  0  0  0
   91.9580  100.3340  102.5170 C   0  0  0  0  0  0  0  0  0  0  0  0
   93.6190   99.3020  103.9390 C   0  0  0  0  0  0  0  0  0  0  0  0
   90.9850   99.4790  103.0630 C   0  0  0  0  0  0  0  0  0  0  0  0
   92.6330   98.4580  104.4720 C   0  0  0  0  0  0  0  0  0  0  0  0
   91.3190   98.5410  104.0320 C   0  0  0  0  0  0  0  0  0  0  0  0
   91.3430  101.4650  101.3660 Cl  0  0  0  0  0  0  0  0  0  0  0  0
   95.2010   99.0860  104.6100 Cl  0  0  0  0  0  0  0  0  0  0  0  0
  1  6  1  0  0  0  0
  1  7  1  0  0  0  0
  2  1  1  0  0  0  0
  3  2  1  0  0  0  0
  3  4  1  0  0  0  0
  4  5  1  0  0  0  0
  6  5  1  0  0  0  0
  7 15  2  0  0  0  0
  7 13  1  0  0  0  0
  8 17  1  0  0  0  0
  9  8  2  0  0  0  0
 10  8  1  0  0  0  0
 11 12  1  0  0  0  0
 11  9  1  0  0  0  0
 12 10  1  0  0  0  0
 13 11  2  0  0  0  0
 14 12  2  0  0  0  0
 15 14  1  0  0  0  0
 16 13  1  0  0  0  0
 17 18  1  0  0  0  0
 19 17  2  0  0  0  0
 20 22  2  0  0  0  0
 20 23  1  0  0  0  0
 20  4  1  0  0  0  0
 21 20  2  0  0  0  0
 23 25  1  0  0  0  0
 24 23  2  0  0  0  0
 24 26  1  0  0  0  0
 25 27  2  0  0  0  0
 25 30  1  0  0  0  0
 26 28  2  0  0  0  0
 28 27  1  0  0  0  0
 29 24  1  0  0  0  0
M  END
>  <minimizedAffinity>
-8.45254326

>  <CNNscore>
0.566151083

>  <CNNaffinity>
6.69419813

$$$$

 OpenBabel08282616403D

 30 33  0  0  0  0  0  0  0  0999 V2000
   99.5010  101.9680  104.0960 N   0  0  0  0  0  0  0  0  0  0  0  0
   99.0320  100.8160  103.2930 C   0  0  0  0  0  0  0  0  0  0  0  0
   97.7150  101.1550  102.5740 C   0  0  0  0  0  0  0  0  0  0  0  0
   96.6060  101.4370  103.5530 N   0  0  0  0  0  0  0  0  0  0  0  0
   97.1090  102.0510  104.8340 C   0  0  0  0  0  0  0  0  0  0  0  0
   98.4270  102.8230  104.6460 C   0  0  0  0  0  0  0  0  0  0  0  0
  100.5780  101.6160  104.9360 C   0  0  0  0  0  0  0  0  0  0  0  0
  103.2820   99.1500  107.7820 C   0  0  0  0  0  0  0  0  0  0  0  0
  102.1480   98.7990  107.0700 C   0  0  0  0  0  0  0  0  0  0  0  0
  103.5880  100.4630  107.5300 O   0  0  0  0  0  0  0  0  0  0  0  0
  101.7260   99.9520  106.3530 C   0  0  0  0  0  0  0  0  0  0  0  0
  102.6500  100.9370  106.6710 C   0  0  0  0  0  0  0  0  0  0  0  0
  100.6860  100.3090  105.4730 C   0  0  0  0  0  0  0  0  0  0  0  0
  102.6110  102.2370  106.1760 C   0  0  0  0  0  0  0  0  0  0  0  0
  101.5570  102.5560  105.3070 C   0  0  0  0  0  0  0  0  0  0  0  0
   99.5980   99.0340  105.0900 Cl  0  0  0  0  0  0  0  0  0  0  0  0
  104.0880   98.1770  108.7370 C   0  0  0  0  0  0  0  0  0  0  0  0
  104.7760   97.2680  108.1810 O   0  0  0  0  0  0  0  0  0  0  0  0
  103.9750   98.3980  109.9830 O   0  0  0  0  0  0  0  0  0  0  0  0
   95.2420  102.2320  102.9010 S   0  0  0  0  0  0  0  0  0  0  0  0
   95.6460  102.6500  101.5770 O   0  0  0  0  0  0  0  0  0  0  0  0
   94.7800  103.2200  103.8540 O   0  0  0  0  0  0  0  0  0  0  0  0
   94.0070  100.9630  102.8330 C   0  0  0  0  0  0  0  0  0  0  0  0
   92.8740  101.0630  102.0140 C   0  0  0  0  0  0  0  0  0  0  0  0
   94.1580   99.8220  103.6450 C   0  0  0  0  0  0  0  0  0  0  0  0
   91.9360  100.0170  101.9840 C   0  0  0  0  0  0  0  0  0  0  0  0
   93.2100   98.7890  103.6010 C   0  0  0  0  0  0  0  0  0  0  0  0
   92.1030   98.8820  102.7690 C   0  0  0  0  0  0  0  0  0  0  0  0
   92.4680  102.4080  101.0120 Cl  0  0  0  0  0  0  0  0  0  0  0  0
   95.4670   99.5610  104.7490 Cl  0  0  0  0  0  0  0  0  0  0  0  0
  1  6  1  0  0  0  0
  1  7  1  0  0  0  0
  2  1  1  0  0  0  0
  3  2  1  0  0  0  0
  3  4  1  0  0  0  0
  4  5  1  0  0  0  0
  6  5  1  0  0  0  0
  7 15  2  0  0  0  0
  7 13  1  0  0  0  0
  8 17  1  0  0  0  0
  9  8  2  0  0  0  0
 10  8  1  0  0  0  0
 11 12  1  0  0  0  0
 11  9  1  0  0  0  0
 12 10  1  0  0  0  0
 13 11  2  0  0  0  0
 14 12  2  0  0  0  0
 15 14  1  0  0  0  0
 16 13  1  0  0  0  0
 17 19  1  0  0  0  0
 18 17  2  0  0  0  0
 20  4  1  0  0  0  0
 20 22  2  0  0  0  0
 21 20  2  0  0  0  0
 23 20  1  0  0  0  0
 23 25  1  0  0  0  0
 24 23  2  0  0  0  0
 25 30  1  0  0  0  0
 26 24  1  0  0  0  0
 26 28  2  0  0  0  0
 27 25  2  0  0  0  0
 28 27  1  0  0  0  0
 29 24  1  0  0  0  0
M  END
>  <minimizedAffinity>
-9.06826878

>  <CNNscore>
0.534046352

>  <CNNaffinity>
6.75770426

$$$$

 OpenBabel08282616403D

 30 33  0  0  0  0  0  0  0  0999 V2000
   98.1790  100.9100  102.9470 N   0  0  0  0  0  0  0  0  0  0  0  0
   97.5890  100.0650  101.8840 C   0  0  0  0  0  0  0  0  0  0  0  0
   96.3120  100.7110  101.3210 C   0  0  0  0  0  0  0  0  0  0  0  0
   95.2420  100.8330  102.3740 N   0  0  0  0  0  0  0  0  0  0  0  0
   95.8120  101.0330  103.7560 C   0  0  0  0  0  0  0  0  0  0  0  0
   97.2020  101.6920  103.7360 C   0  0  0  0  0  0  0  0  0  0  0  0
   99.2170  100.2440  103.6300 C   0  0  0  0  0  0  0  0  0  0  0  0
  102.3000   99.1620  106.9190 C   0  0  0  0  0  0  0  0  0  0  0  0
  101.2680  100.0850  106.9050 C   0  0  0  0  0  0  0  0  0  0  0  0
  102.3300   98.4950  105.7220 O   0  0  0  0  0  0  0  0  0  0  0  0
  100.6370   99.9920  105.6340 C   0  0  0  0  0  0  0  0  0  0  0  0
  101.3290   98.9980  104.9560 C   0  0  0  0  0  0  0  0  0  0  0  0
   99.5710  100.6110  104.9530 C   0  0  0  0  0  0  0  0  0  0  0  0
  101.0320   98.5820  103.6610 C   0  0  0  0  0  0  0  0  0  0  0  0
   99.9680   99.2260  103.0140 C   0  0  0  0  0  0  0  0  0  0  0  0
   98.7330  101.8060  105.8620 Cl  0  0  0  0  0  0  0  0  0  0  0  0
  103.2870   98.9280  108.1350 C   0  0  0  0  0  0  0  0  0  0  0  0
  103.2940   99.8100  109.0470 O   0  0  0  0  0  0  0  0  0  0  0  0
  103.9870   97.8690  108.0910 O   0  0  0  0  0  0  0  0  0  0  0  0
   93.9660  101.9040  101.9970 S   0  0  0  0  0  0  0  0  0  0  0  0
   94.1550  102.2400  100.6040 O   0  0  0  0  0  0  0  0  0  0  0  0
   93.9350  102.9580  102.9900 O   0  0  0  0  0  0  0  0  0  0  0  0
   92.5100  100.9250  102.2380 C   0  0  0  0  0  0  0  0  0  0  0  0
   92.4560   99.8790  103.1710 C   0  0  0  0  0  0  0  0  0  0  0  0
   91.3710  101.1910  101.4540 C   0  0  0  0  0  0  0  0  0  0  0  0
   91.2690   99.1460  103.3360 C   0  0  0  0  0  0  0  0  0  0  0  0
   90.1950  100.4480  101.6330 C   0  0  0  0  0  0  0  0  0  0  0  0
   90.1400   99.4310  102.5760 C   0  0  0  0  0  0  0  0  0  0  0  0
   93.7620   99.3460  104.1660 Cl  0  0  0  0  0  0  0  0  0  0  0  0
   91.2820  102.4080  100.2240 Cl  0  0  0  0  0  0  0  0  0  0  0  0
  1  7  1  0  0  0  0
  1  6  1  0  0  0  0
  2  1  1  0  0  0  0
  3  2  1  0  0  0  0
  3  4  1  0  0  0  0
  4  5  1  0  0  0  0
  6  5  1  0  0  0  0
  7 13  1  0  0  0  0
  8 17  1  0  0  0  0
  9  8  2  0  0  0  0
 10  8  1  0  0  0  0
 11  9  1  0  0  0  0
 12 11  1  0  0  0  0
 12 10  1  0  0  0  0
 13 11  2  0  0  0  0
 13 16  1  0  0  0  0
 14 12  2  0  0  0  0
 15  7  2  0  0  0  0
 15 14  1  0  0  0  0
 17 18  1  0  0  0  0
 19 17  2  0  0  0  0
 20 23  1  0  0  0  0
 20  4  1  0  0  0  0
 20 22  2  0  0  0  0
 21 20  2  0  0  0  0
 23 24  1  0  0  0  0
 24 26  2  0  0  0  0
 24 29  1  0  0  0  0
 25 27  1  0  0  0  0
 25 23  2  0  0  0  0
 27 28  2  0  0  0  0
 28 26  1  0  0  0  0
 30 25  1  0  0  0  0
M  END
>  <minimizedAffinity>
-8.11518192

>  <CNNscore>
0.444088757

>  <CNNaffinity>
6.4194417

$$$$
