
 OpenBabel08282606403D

 24 26  0  0  0  0  0  0  0  0999 V2000
   91.8250  101.7830  100.7640 C   0  0  0  0  0  0  0  0  0  0  0  0
   92.1430  100.6920   99.9400 C   0  0  0  0  0  0  0  0  0  0  0  0
   93.4200  100.1240   99.9660 C   0  0  0  0  0  0  0  0  0  0  0  0
   94.3990  100.6370  100.8150 C   0  0  0  0  0  0  0  0  0  0  0  0
   95.6240  100.0240  100.7820 O   0  0  0  0  0  0  0  0  0  0  0  0
   96.6200  100.5000  101.6040 C   0  0  0  0  0  0  0  0  0  0  0  0
   97.7830   99.8240  101.4920 N   0  0  0  0  0  0  0  0  0  0  0  0
   98.8300  100.2230  102.2510 C   0  0  0  0  0  0  0  0  0  0  0  0
   98.7460  101.2870  103.1590 C   0  0  0  0  0  0  0  0  0  0  0  0
   97.5180  101.9650  103.2580 C   0  0  0  0  0  0  0  0  0  0  0  0
   96.4470  101.5650  102.4680 C   0  0  0  0  0  0  0  0  0  0  0  0
   95.1430  102.2380  102.5220 C   0  0  0  0  0  0  0  0  0  0  0  0
   94.9240  103.1880  103.2620 O   0  0  0  0  0  0  0  0  0  0  0  0
   94.0950  101.7160  101.6360 C   0  0  0  0  0  0  0  0  0  0  0  0
   92.8180  102.2910  101.6150 C   0  0  0  0  0  0  0  0  0  0  0  0
   90.4450  102.4190  100.7550 C   0  0  0  0  0  0  0  0  0  0  0  0
   89.9540  102.6730   99.3280 C   0  0  0  0  0  0  0  0  0  0  0  0
   89.4350  101.5780  101.5390 C   0  0  0  0  0  0  0  0  0  0  0  0
   99.9210  101.7290  103.9880 C   0  0  0  0  0  0  0  0  0  0  0  0
  100.9450  100.9720  103.9890 O   0  0  0  0  0  0  0  0  0  0  0  0
   99.8060  102.8210  104.6230 O   0  0  0  0  0  0  0  0  0  0  0  0
   99.9940   99.4360  102.1510 N   0  0  0  0  0  0  0  0  0  0  0  0
  100.7760  100.1120  102.2150 H   0  0  0  0  0  0  0  0  0  0  0  0
  100.1060   98.9650  103.0470 H   0  0  0  0  0  0  0  0  0  0  0  0
  1 15  1  0  0  0  0
  2  3  1  0  0  0  0
  2  1  2  0  0  0  0
  3  4  2  0  0  0  0
  4 14  1  0  0  0  0
  5  4  1  0  0  0  0
  5  6  1  0  0  0  0
  6 11  1  0  0  0  0
  7  6  2  0  0  0  0
  7  8  1  0  0  0  0
  8  9  2  0  0  0  0
  9 10  1  0  0  0  0
  9 19  1  0  0  0  0
 11 12  1  0  0  0  0
 11 10  2  0  0  0  0
 12 13  2  0  0  0  0
 14 12  1  0  0  0  0
 15 14  2  0  0  0  0
 16  1  1  0  0  0  0
 16 18  1  0  0  0  0
 17 16  1  0  0  0  0
 19 20  2  0  0  0  0
 19 21  1  0  0  0  0
 22 23  1  0  0  0  0
 22  8  1  0  0  0  0
 22 24  1  0  0  0  0
M  END
>  <minimizedAffinity>
-6.68902302

>  <CNNscore>
0.724704325

>  <CNNaffinity>
5.38639307

$$$$

 OpenBabel08282606403D

 24 26  0  0  0  0  0  0  0  0999 V2000
   99.1050  104.4360  106.8760 C   0  0  0  0  0  0  0  0  0  0  0  0
  100.0250  103.5490  106.2960 C   0  0  0  0  0  0  0  0  0  0  0  0
   99.6570  102.7420  105.2140 C   0  0  0  0  0  0  0  0  0  0  0  0
   98.3650  102.8090  104.6960 C   0  0  0  0  0  0  0  0  0  0  0  0
   98.0840  101.9880  103.6370 O   0  0  0  0  0  0  0  0  0  0  0  0
   96.8190  102.0210  103.0960 C   0  0  0  0  0  0  0  0  0  0  0  0
   96.6520  101.1740  102.0580 N   0  0  0  0  0  0  0  0  0  0  0  0
   95.4360  101.1240  101.4630 C   0  0  0  0  0  0  0  0  0  0  0  0
   94.3620  101.9280  101.8670 C   0  0  0  0  0  0  0  0  0  0  0  0
   94.5710  102.8050  102.9450 C   0  0  0  0  0  0  0  0  0  0  0  0
   95.8140  102.8470  103.5650 C   0  0  0  0  0  0  0  0  0  0  0  0
   96.0910  103.7360  104.7000 C   0  0  0  0  0  0  0  0  0  0  0  0
   95.2460  104.4900  105.1660 O   0  0  0  0  0  0  0  0  0  0  0  0
   97.4470  103.6840  105.2630 C   0  0  0  0  0  0  0  0  0  0  0  0
   97.8060  104.4950  106.3470 C   0  0  0  0  0  0  0  0  0  0  0  0
   99.4790  105.3220  108.0510 C   0  0  0  0  0  0  0  0  0  0  0  0
   98.9420  106.7440  107.8750 C   0  0  0  0  0  0  0  0  0  0  0  0
   99.0080  104.7220  109.3780 C   0  0  0  0  0  0  0  0  0  0  0  0
   93.0120  101.8530  101.2060 C   0  0  0  0  0  0  0  0  0  0  0  0
   92.8850  101.0310  100.2410 O   0  0  0  0  0  0  0  0  0  0  0  0
   92.1010  102.6110  101.6580 O   0  0  0  0  0  0  0  0  0  0  0  0
   95.3400  100.2810  100.3390 N   0  0  0  0  0  0  0  0  0  0  0  0
   94.3920   99.8690  100.4000 H   0  0  0  0  0  0  0  0  0  0  0  0
   95.2080  100.8870   99.5310 H   0  0  0  0  0  0  0  0  0  0  0  0
  1 16  1  0  0  0  0
  2  1  2  0  0  0  0
  3  2  1  0  0  0  0
  4  3  2  0  0  0  0
  4 14  1  0  0  0  0
  5  4  1  0  0  0  0
  6 11  1  0  0  0  0
  6  5  1  0  0  0  0
  7  6  2  0  0  0  0
  8  9  2  0  0  0  0
  8  7  1  0  0  0  0
  9 10  1  0  0  0  0
 10 11  2  0  0  0  0
 11 12  1  0  0  0  0
 12 13  2  0  0  0  0
 12 14  1  0  0  0  0
 14 15  2  0  0  0  0
 15  1  1  0  0  0  0
 16 18  1  0  0  0  0
 17 16  1  0  0  0  0
 19 21  1  0  0  0  0
 19  9  1  0  0  0  0
 20 19  2  0  0  0  0
 22 23  1  0  0  0  0
 22  8  1  0  0  0  0
 24 22  1  0  0  0  0
M  END
>  <minimizedAffinity>
-7.76553392

>  <CNNscore>
0.703584254

>  <CNNaffinity>
5.72785234

$$$$

 OpenBabel08282606403D

 24 26  0  0  0  0  0  0  0  0999 V2000
   98.0330  105.1480  107.4500 C   0  0  0  0  0  0  0  0  0  0  0  0
   98.1570  103.9120  108.1030 C   0  0  0  0  0  0  0  0  0  0  0  0
   97.6110  102.7500  107.5480 C   0  0  0  0  0  0  0  0  0  0  0  0
   96.9320  102.8060  106.3320 C   0  0  0  0  0  0  0  0  0  0  0  0
   96.4270  101.6260  105.8550 O   0  0  0  0  0  0  0  0  0  0  0  0
   95.7480  101.6370  104.6580 C   0  0  0  0  0  0  0  0  0  0  0  0
   95.2950  100.4220  104.2820 N   0  0  0  0  0  0  0  0  0  0  0  0
   94.6020  100.3290  103.1220 C   0  0  0  0  0  0  0  0  0  0  0  0
   94.3610  101.4320  102.2930 C   0  0  0  0  0  0  0  0  0  0  0  0
   94.8530  102.6820  102.7090 C   0  0  0  0  0  0  0  0  0  0  0  0
   95.5520  102.7810  103.9060 C   0  0  0  0  0  0  0  0  0  0  0  0
   96.0830  104.0580  104.3970 C   0  0  0  0  0  0  0  0  0  0  0  0
   95.9420  105.1080  103.7830 O   0  0  0  0  0  0  0  0  0  0  0  0
   96.8040  104.0250  105.6770 C   0  0  0  0  0  0  0  0  0  0  0  0
   97.3470  105.1930  106.2260 C   0  0  0  0  0  0  0  0  0  0  0  0
   98.6170  106.4240  108.0310 C   0  0  0  0  0  0  0  0  0  0  0  0
   99.4220  106.1440  109.3020 C   0  0  0  0  0  0  0  0  0  0  0  0
   99.4650  107.1730  107.0010 C   0  0  0  0  0  0  0  0  0  0  0  0
   93.5780  101.3180  101.0130 C   0  0  0  0  0  0  0  0  0  0  0  0
   92.6110  102.1310  100.8510 O   0  0  0  0  0  0  0  0  0  0  0  0
   93.9390  100.4230  100.1890 O   0  0  0  0  0  0  0  0  0  0  0  0
   94.2210   99.0280  102.7400 N   0  0  0  0  0  0  0  0  0  0  0  0
   93.2860   99.1440  102.3080 H   0  0  0  0  0  0  0  0  0  0  0  0
   94.7620   98.7970  101.9100 H   0  0  0  0  0  0  0  0  0  0  0  0
  1 16  1  0  0  0  0
  1  2  1  0  0  0  0
  3  2  2  0  0  0  0
  4  3  1  0  0  0  0
  5  4  1  0  0  0  0
  6  5  1  0  0  0  0
  7  6  1  0  0  0  0
  8  7  2  0  0  0  0
  9 10  2  0  0  0  0
  9  8  1  0  0  0  0
 10 11  1  0  0  0  0
 11 12  1  0  0  0  0
 11  6  2  0  0  0  0
 12 14  1  0  0  0  0
 13 12  2  0  0  0  0
 14 15  1  0  0  0  0
 14  4  2  0  0  0  0
 15  1  2  0  0  0  0
 16 17  1  0  0  0  0
 18 16  1  0  0  0  0
 19  9  1  0  0  0  0
 20 19  1  0  0  0  0
 21 19  2  0  0  0  0
 22  8  1  0  0  0  0
 23 22  1  0  0  0  0
 24 22  1  0  0  0  0
M  END
>  <minimizedAffinity>
-7.89194632

>  <CNNscore>
0.658020616

>  <CNNaffinity>
5.37082481

$$$$

 OpenBabel08282606403D

 24 26  0  0  0  0  0  0  0  0999 V2000
   97.7560  104.6090  105.8670 C   0  0  0  0  0  0  0  0  0  0  0  0
   97.8680  103.3610  106.5010 C   0  0  0  0  0  0  0  0  0  0  0  0
   97.1480  102.2560  106.0380 C   0  0  0  0  0  0  0  0  0  0  0  0
   96.3030  102.3790  104.9360 C   0  0  0  0  0  0  0  0  0  0  0  0
   95.6340  101.2500  104.5460 O   0  0  0  0  0  0  0  0  0  0  0  0
   94.7880  101.3290  103.4630 C   0  0  0  0  0  0  0  0  0  0  0  0
   94.1820  100.1600  103.1640 N   0  0  0  0  0  0  0  0  0  0  0  0
   93.3200  100.1350  102.1200 C   0  0  0  0  0  0  0  0  0  0  0  0
   93.0540  101.2620  101.3310 C   0  0  0  0  0  0  0  0  0  0  0  0
   93.7080  102.4610  101.6630 C   0  0  0  0  0  0  0  0  0  0  0  0
   94.5820  102.4910  102.7430 C   0  0  0  0  0  0  0  0  0  0  0  0
   95.2880  103.7140  103.1420 C   0  0  0  0  0  0  0  0  0  0  0  0
   95.1490  104.7760  102.5510 O   0  0  0  0  0  0  0  0  0  0  0  0
   96.1850  103.6090  104.3010 C   0  0  0  0  0  0  0  0  0  0  0  0
   96.9020  104.7210  104.7580 C   0  0  0  0  0  0  0  0  0  0  0  0
   98.5260  105.8250  106.3490 C   0  0  0  0  0  0  0  0  0  0  0  0
   98.7670  105.7750  107.8590 C   0  0  0  0  0  0  0  0  0  0  0  0
   99.8460  105.9900  105.5910 C   0  0  0  0  0  0  0  0  0  0  0  0
   92.0830  101.2250  100.1810 C   0  0  0  0  0  0  0  0  0  0  0  0
   92.1230  100.2010   99.4240 O   0  0  0  0  0  0  0  0  0  0  0  0
   91.2990  102.2130  100.0510 O   0  0  0  0  0  0  0  0  0  0  0  0
   92.7750   98.8750  101.8060 N   0  0  0  0  0  0  0  0  0  0  0  0
   91.8010   99.0740  101.5170 H   0  0  0  0  0  0  0  0  0  0  0  0
   93.1660   98.6050  100.9060 H   0  0  0  0  0  0  0  0  0  0  0  0
  1 16  1  0  0  0  0
  1  2  1  0  0  0  0
  3  2  2  0  0  0  0
  4  3  1  0  0  0  0
  5  4  1  0  0  0  0
  6  5  1  0  0  0  0
  7  6  1  0  0  0  0
  8  7  2  0  0  0  0
  9 10  2  0  0  0  0
  9  8  1  0  0  0  0
 10 11  1  0  0  0  0
 11 12  1  0  0  0  0
 11  6  2  0  0  0  0
 12 14  1  0  0  0  0
 13 12  2  0  0  0  0
 14 15  1  0  0  0  0
 14  4  2  0  0  0  0
 15  1  2  0  0  0  0
 16 17  1  0  0  0  0
 18 16  1  0  0  0  0
 19  9  1  0  0  0  0
 20 19  2  0  0  0  0
 21 19  1  0  0  0  0
 22  8  1  0  0  0  0
 23 22  1  0  0  0  0
 24 22  1  0  0  0  0
M  END
>  <minimizedAffinity>
-6.80149221

>  <CNNscore>
0.609432459

>  <CNNaffinity>
5.36071539

$$$$

 OpenBabel08282606403D

 24 26  0  0  0  0  0  0  0  0999 V2000
  101.0980  100.0660  104.9150 C   0  0  0  0  0  0  0  0  0  0  0  0
  101.1320   99.0430  103.9540 C   0  0  0  0  0  0  0  0  0  0  0  0
  100.0900   98.8890  103.0350 C   0  0  0  0  0  0  0  0  0  0  0  0
   98.9970   99.7540  103.0620 C   0  0  0  0  0  0  0  0  0  0  0  0
   98.0190   99.5360  102.1280 O   0  0  0  0  0  0  0  0  0  0  0  0
   96.9210  100.3670  102.1200 C   0  0  0  0  0  0  0  0  0  0  0  0
   96.0210  100.0650  101.1600 N   0  0  0  0  0  0  0  0  0  0  0  0
   94.8990  100.8170  101.0770 C   0  0  0  0  0  0  0  0  0  0  0  0
   94.6500  101.9030  101.9270 C   0  0  0  0  0  0  0  0  0  0  0  0
   95.6110  102.1960  102.9100 C   0  0  0  0  0  0  0  0  0  0  0  0
   96.7560  101.4160  103.0060 C   0  0  0  0  0  0  0  0  0  0  0  0
   97.7910  101.6690  104.0160 C   0  0  0  0  0  0  0  0  0  0  0  0
   97.7060  102.5780  104.8310 O   0  0  0  0  0  0  0  0  0  0  0  0
   98.9540  100.7700  104.0080 C   0  0  0  0  0  0  0  0  0  0  0  0
   99.9930  100.9310  104.9320 C   0  0  0  0  0  0  0  0  0  0  0  0
  102.2170  100.2560  105.9240 C   0  0  0  0  0  0  0  0  0  0  0  0
  102.4550  101.7360  106.2270 C   0  0  0  0  0  0  0  0  0  0  0  0
  101.9490   99.4720  107.2110 C   0  0  0  0  0  0  0  0  0  0  0  0
   93.3910  102.7230  101.8330 C   0  0  0  0  0  0  0  0  0  0  0  0
   93.3350  103.7790  102.5440 O   0  0  0  0  0  0  0  0  0  0  0  0
   92.4820  102.3050  101.0540 O   0  0  0  0  0  0  0  0  0  0  0  0
   94.0320  100.5070  100.0110 N   0  0  0  0  0  0  0  0  0  0  0  0
   93.0810  100.6410  100.3980 H   0  0  0  0  0  0  0  0  0  0  0  0
   94.0650  101.2960   99.3690 H   0  0  0  0  0  0  0  0  0  0  0  0
  1 15  1  0  0  0  0
  1 16  1  0  0  0  0
  2  1  2  0  0  0  0
  3  4  2  0  0  0  0
  3  2  1  0  0  0  0
  4 14  1  0  0  0  0
  5  4  1  0  0  0  0
  6  5  1  0  0  0  0
  6 11  1  0  0  0  0
  7  6  2  0  0  0  0
  8  7  1  0  0  0  0
  8  9  2  0  0  0  0
  9 10  1  0  0  0  0
 10 11  2  0  0  0  0
 11 12  1  0  0  0  0
 12 13  2  0  0  0  0
 14 12  1  0  0  0  0
 14 15  2  0  0  0  0
 16 17  1  0  0  0  0
 16 18  1  0  0  0  0
 19  9  1  0  0  0  0
 19 20  1  0  0  0  0
 21 19  2  0  0  0  0
 22 23  1  0  0  0  0
 22  8  1  0  0  0  0
 24 22  1  0  0  0  0
M  END
>  <minimizedAffinity>
-8.6542902

>  <CNNscore>
0.578130424

>  <CNNaffinity>
5.58887053

$$$$

 OpenBabel08282606403D

 24 26  0  0  0  0  0  0  0  0999 V2000
   92.5240   99.5490  102.4240 C   0  0  0  0  0  0  0  0  0  0  0  0
   92.9720   99.8600  101.1310 C   0  0  0  0  0  0  0  0  0  0  0  0
   94.3370   99.9880  100.8570 C   0  0  0  0  0  0  0  0  0  0  0  0
   95.2760   99.8080  101.8720 C   0  0  0  0  0  0  0  0  0  0  0  0
   96.5930   99.9490  101.5230 O   0  0  0  0  0  0  0  0  0  0  0  0
   97.5530   99.7810  102.4940 C   0  0  0  0  0  0  0  0  0  0  0  0
   98.8150   99.9420  102.0420 N   0  0  0  0  0  0  0  0  0  0  0  0
   99.8320   99.8080  102.9250 C   0  0  0  0  0  0  0  0  0  0  0  0
   99.6280   99.4880  104.2740 C   0  0  0  0  0  0  0  0  0  0  0  0
   98.3020   99.3190  104.7110 C   0  0  0  0  0  0  0  0  0  0  0  0
   97.2570   99.4710  103.8090 C   0  0  0  0  0  0  0  0  0  0  0  0
   95.8530   99.3140  104.2070 C   0  0  0  0  0  0  0  0  0  0  0  0
   95.5210   99.0430  105.3540 O   0  0  0  0  0  0  0  0  0  0  0  0
   94.8440   99.4990  103.1550 C   0  0  0  0  0  0  0  0  0  0  0  0
   93.4790   99.3700  103.4380 C   0  0  0  0  0  0  0  0  0  0  0  0
   91.0480   99.4050  102.7480 C   0  0  0  0  0  0  0  0  0  0  0  0
   90.8070   99.3530  104.2580 C   0  0  0  0  0  0  0  0  0  0  0  0
   90.2200  100.5190  102.1020 C   0  0  0  0  0  0  0  0  0  0  0  0
  100.7670   99.3550  105.2480 C   0  0  0  0  0  0  0  0  0  0  0  0
  100.7690  100.1470  106.2460 O   0  0  0  0  0  0  0  0  0  0  0  0
  101.6380   98.4670  105.0060 O   0  0  0  0  0  0  0  0  0  0  0  0
  101.1290   99.9090  102.3840 N   0  0  0  0  0  0  0  0  0  0  0  0
  101.6800  100.4000  103.1120 H   0  0  0  0  0  0  0  0  0  0  0  0
  101.5470   98.9840  102.4530 H   0  0  0  0  0  0  0  0  0  0  0  0
  1 16  1  0  0  0  0
  1 15  1  0  0  0  0
  2  1  2  0  0  0  0
  3  2  1  0  0  0  0
  3  4  2  0  0  0  0
  4 14  1  0  0  0  0
  5  4  1  0  0  0  0
  5  6  1  0  0  0  0
  6 11  1  0  0  0  0
  7  6  2  0  0  0  0
  7  8  1  0  0  0  0
  8  9  2  0  0  0  0
  9 10  1  0  0  0  0
  9 19  1  0  0  0  0
 11 12  1  0  0  0  0
 11 10  2  0  0  0  0
 12 13  2  0  0  0  0
 14 15  2  0  0  0  0
 14 12  1  0  0  0  0
 16 17  1  0  0  0  0
 18 16  1  0  0  0  0
 19 20  1  0  0  0  0
 21 19  2  0  0  0  0
 22 24  1  0  0  0  0
 22  8  1  0  0  0  0
 22 23  1  0  0  0  0
M  END
>  <minimizedAffinity>
-6.6804738

>  <CNNscore>
0.564155102

>  <CNNaffinity>
5.61695147

$$$$

 OpenBabel08282606403D

 24 26  0  0  0  0  0  0  0  0999 V2000
  101.4610  100.2770  106.0900 C   0  0  0  0  0  0  0  0  0  0  0  0
  101.6310   99.2220  105.1800 C   0  0  0  0  0  0  0  0  0  0  0  0
  100.7040   99.0020  104.1570 C   0  0  0  0  0  0  0  0  0  0  0  0
   99.5910   99.8320  104.0280 C   0  0  0  0  0  0  0  0  0  0  0  0
   98.7310   99.5500  103.0010 O   0  0  0  0  0  0  0  0  0  0  0  0
   97.6180  100.3440  102.8380 C   0  0  0  0  0  0  0  0  0  0  0  0
   96.8410   99.9780  101.7960 N   0  0  0  0  0  0  0  0  0  0  0  0
   95.7140  100.6910  101.5590 C   0  0  0  0  0  0  0  0  0  0  0  0
   95.3410  101.7970  102.3330 C   0  0  0  0  0  0  0  0  0  0  0  0
   96.1760  102.1570  103.4050 C   0  0  0  0  0  0  0  0  0  0  0  0
   97.3250  101.4170  103.6580 C   0  0  0  0  0  0  0  0  0  0  0  0
   98.2320  101.7390  104.7660 C   0  0  0  0  0  0  0  0  0  0  0  0
   98.0300  102.6730  105.5310 O   0  0  0  0  0  0  0  0  0  0  0  0
   99.4130  100.8790  104.9230 C   0  0  0  0  0  0  0  0  0  0  0  0
  100.3360  101.1060  105.9510 C   0  0  0  0  0  0  0  0  0  0  0  0
  102.4520  100.5380  107.2100 C   0  0  0  0  0  0  0  0  0  0  0  0
  102.2610  101.9300  107.8160 C   0  0  0  0  0  0  0  0  0  0  0  0
  102.3760   99.4570  108.2910 C   0  0  0  0  0  0  0  0  0  0  0  0
   94.0790  102.5730  102.0670 C   0  0  0  0  0  0  0  0  0  0  0  0
   93.8000  103.5190  102.8740 O   0  0  0  0  0  0  0  0  0  0  0  0
   93.3870  102.2300  101.0610 O   0  0  0  0  0  0  0  0  0  0  0  0
   94.9820  100.3150  100.4150 N   0  0  0  0  0  0  0  0  0  0  0  0
   93.9900  100.4320  100.6880 H   0  0  0  0  0  0  0  0  0  0  0  0
   95.0660  101.0820   99.7510 H   0  0  0  0  0  0  0  0  0  0  0  0
  1 16  1  0  0  0  0
  2  1  2  0  0  0  0
  3  2  1  0  0  0  0
  4  3  2  0  0  0  0
  4 14  1  0  0  0  0
  5  4  1  0  0  0  0
  6  5  1  0  0  0  0
  6 11  1  0  0  0  0
  7  6  2  0  0  0  0
  8  7  1  0  0  0  0
  8  9  2  0  0  0  0
  9 10  1  0  0  0  0
 10 11  2  0  0  0  0
 11 12  1  0  0  0  0
 12 14  1  0  0  0  0
 12 13  2  0  0  0  0
 14 15  2  0  0  0  0
 15  1  1  0  0  0  0
 16 17  1  0  0  0  0
 16 18  1  0  0  0  0
 19  9  1  0  0  0  0
 19 20  1  0  0  0  0
 21 19  2  0  0  0  0
 22 23  1  0  0  0  0
 22  8  1  0  0  0  0
 24 22  1  0  0  0  0
M  END
>  <minimizedAffinity>
-8.47981071

>  <CNNscore>
0.497056186

>  <CNNaffinity>
5.56332397

$$$$

 OpenBabel08282606403D

 24 26  0  0  0  0  0  0  0  0999 V2000
  102.8720   99.4300  107.6730 C   0  0  0  0  0  0  0  0  0  0  0  0
  102.6220   98.5860  106.5800 C   0  0  0  0  0  0  0  0  0  0  0  0
  101.6010   98.8760  105.6700 C   0  0  0  0  0  0  0  0  0  0  0  0
  100.8120  100.0130  105.8380 C   0  0  0  0  0  0  0  0  0  0  0  0
   99.8340  100.2270  104.9040 O   0  0  0  0  0  0  0  0  0  0  0  0
   99.0320  101.3380  105.0340 C   0  0  0  0  0  0  0  0  0  0  0  0
   98.1030  101.4510  104.0600 N   0  0  0  0  0  0  0  0  0  0  0  0
   97.2560  102.5060  104.1050 C   0  0  0  0  0  0  0  0  0  0  0  0
   97.3210  103.4880  105.1030 C   0  0  0  0  0  0  0  0  0  0  0  0
   98.3050  103.3460  106.0970 C   0  0  0  0  0  0  0  0  0  0  0  0
   99.1660  102.2550  106.0600 C   0  0  0  0  0  0  0  0  0  0  0  0
  100.2070  102.0480  107.0730 C   0  0  0  0  0  0  0  0  0  0  0  0
  100.3780  102.8190  108.0080 O   0  0  0  0  0  0  0  0  0  0  0  0
  101.0510  100.8560  106.9170 C   0  0  0  0  0  0  0  0  0  0  0  0
  102.0720  100.5720  107.8330 C   0  0  0  0  0  0  0  0  0  0  0  0
  103.9740   99.1380  108.6760 C   0  0  0  0  0  0  0  0  0  0  0  0
  103.4060   98.6270  110.0010 C   0  0  0  0  0  0  0  0  0  0  0  0
  105.0030   98.1570  108.1080 C   0  0  0  0  0  0  0  0  0  0  0  0
   96.3650  104.6500  105.1490 C   0  0  0  0  0  0  0  0  0  0  0  0
   96.8410  105.8010  104.8850 O   0  0  0  0  0  0  0  0  0  0  0  0
   95.1580  104.3970  105.4460 O   0  0  0  0  0  0  0  0  0  0  0  0
   96.3590  102.6170  103.0250 N   0  0  0  0  0  0  0  0  0  0  0  0
   95.4820  102.9720  103.4460 H   0  0  0  0  0  0  0  0  0  0  0  0
   96.6390  103.4420  102.4980 H   0  0  0  0  0  0  0  0  0  0  0  0
  1 15  1  0  0  0  0
  1 16  1  0  0  0  0
  2  1  2  0  0  0  0
  3  4  2  0  0  0  0
  3  2  1  0  0  0  0
  4 14  1  0  0  0  0
  5  6  1  0  0  0  0
  5  4  1  0  0  0  0
  6 11  1  0  0  0  0
  7  8  1  0  0  0  0
  7  6  2  0  0  0  0
  8  9  2  0  0  0  0
  9 19  1  0  0  0  0
  9 10  1  0  0  0  0
 11 10  2  0  0  0  0
 11 12  1  0  0  0  0
 12 13  2  0  0  0  0
 14 12  1  0  0  0  0
 14 15  2  0  0  0  0
 16 17  1  0  0  0  0
 18 16  1  0  0  0  0
 19 21  1  0  0  0  0
 20 19  2  0  0  0  0
 22 23  1  0  0  0  0
 22  8  1  0  0  0  0
 24 22  1  0  0  0  0
M  END
>  <minimizedAffinity>
-8.89270401

>  <CNNscore>
0.496814787

>  <CNNaffinity>
5.52548027

$$$$

 OpenBabel08282606403D

 24 26  0  0  0  0  0  0  0  0999 V2000
   90.3700   97.8920  106.0420 C   0  0  0  0  0  0  0  0  0  0  0  0
   89.9960   98.0810  104.7020 C   0  0  0  0  0  0  0  0  0  0  0  0
   90.9230   98.5320  103.7570 C   0  0  0  0  0  0  0  0  0  0  0  0
   92.2380   98.8010  104.1360 C   0  0  0  0  0  0  0  0  0  0  0  0
   93.0840   99.2370  103.1510 O   0  0  0  0  0  0  0  0  0  0  0  0
   94.3900   99.5160  103.4830 C   0  0  0  0  0  0  0  0  0  0  0  0
   95.1350   99.9370  102.4380 N   0  0  0  0  0  0  0  0  0  0  0  0
   96.4330  100.2490  102.6630 C   0  0  0  0  0  0  0  0  0  0  0  0
   97.0330  100.1290  103.9240 C   0  0  0  0  0  0  0  0  0  0  0  0
   96.2330   99.6790  104.9880 C   0  0  0  0  0  0  0  0  0  0  0  0
   94.8960   99.3730  104.7610 C   0  0  0  0  0  0  0  0  0  0  0  0
   94.0090   98.9070  105.8330 C   0  0  0  0  0  0  0  0  0  0  0  0
   94.3920   98.7620  106.9870 O   0  0  0  0  0  0  0  0  0  0  0  0
   92.6180   98.6160  105.4590 C   0  0  0  0  0  0  0  0  0  0  0  0
   91.6960   98.1660  106.4120 C   0  0  0  0  0  0  0  0  0  0  0  0
   89.3830   97.4040  107.0880 C   0  0  0  0  0  0  0  0  0  0  0  0
   89.1570   95.8940  106.9860 C   0  0  0  0  0  0  0  0  0  0  0  0
   89.8240   97.7960  108.5000 C   0  0  0  0  0  0  0  0  0  0  0  0
   98.4740  100.4910  104.1640 C   0  0  0  0  0  0  0  0  0  0  0  0
   99.1790   99.6550  104.8170 O   0  0  0  0  0  0  0  0  0  0  0  0
   98.8810  101.5990  103.6990 O   0  0  0  0  0  0  0  0  0  0  0  0
   97.1820  100.6080  101.5260 N   0  0  0  0  0  0  0  0  0  0  0  0
   97.8220  101.3530  101.8570 H   0  0  0  0  0  0  0  0  0  0  0  0
   97.8570   99.8620  101.3740 H   0  0  0  0  0  0  0  0  0  0  0  0
  1 15  1  0  0  0  0
  1 16  1  0  0  0  0
  2  1  2  0  0  0  0
  3  4  2  0  0  0  0
  3  2  1  0  0  0  0
  4 14  1  0  0  0  0
  5  6  1  0  0  0  0
  5  4  1  0  0  0  0
  6 11  1  0  0  0  0
  7  8  1  0  0  0  0
  7  6  2  0  0  0  0
  8  9  2  0  0  0  0
  9 19  1  0  0  0  0
  9 10  1  0  0  0  0
 11 10  2  0  0  0  0
 11 12  1  0  0  0  0
 12 13  2  0  0  0  0
 14 12  1  0  0  0  0
 14 15  2  0  0  0  0
 16 18  1  0  0  0  0
 17 16  1  0  0  0  0
 19 20  1  0  0  0  0
 21 19  2  0  0  0  0
 22 23  1  0  0  0  0
 22  8  1  0  0  0  0
 24 22  1  0  0  0  0
M  END
>  <minimizedAffinity>
-6.70477247

>  <CNNscore>
0.434276074

>  <CNNaffinity>
4.97610283

$$$$
