
 OpenBabel08272614073D

 27 30  0  0  1  0  0  0  0  0999 V2000
  100.0960  101.1860  106.1750 C   0  0  2  0  0  0  0  0  0  0  0  0
   99.9370  101.3660  104.6600 C   0  0  0  0  0  0  0  0  0  0  0  0
   98.9820  102.5050  104.3560 C   0  0  0  0  0  0  0  0  0  0  0  0
   97.7910  102.4170  103.7290 C   0  0  0  0  0  0  0  0  0  0  0  0
   96.7260  103.4680  103.6570 C   0  0  0  0  0  0  0  0  0  0  0  0
   95.4560  102.6450  103.5900 C   0  0  0  0  0  0  0  0  0  0  0  0
   95.8330  101.3980  102.9720 N   0  0  0  0  0  0  0  0  0  0  0  0
   97.2180  101.1940  103.0690 C   0  0  0  0  0  0  0  0  0  0  0  0
   97.8840  100.2610  102.6560 O   0  0  0  0  0  0  0  0  0  0  0  0
   99.4830  103.7570  104.9750 C   0  0  0  0  0  0  0  0  0  0  0  0
   99.4400  104.9910  104.3060 C   0  0  0  0  0  0  0  0  0  0  0  0
   99.9380  106.1440  104.9150 C   0  0  0  0  0  0  0  0  0  0  0  0
  100.4900  106.0650  106.1890 C   0  0  0  0  0  0  0  0  0  0  0  0
  101.0800  107.4930  106.9490 Cl  0  0  0  0  0  0  0  0  0  0  0  0
  100.5730  104.8400  106.8480 C   0  0  0  0  0  0  0  0  0  0  0  0
  100.1110  103.6690  106.2340 C   0  0  0  0  0  0  0  0  0  0  0  0
  100.1640  102.4670  106.9520 N   0  0  0  0  0  0  0  0  0  0  0  0
  101.0280  102.3910  107.5180 H   0  0  0  0  0  0  0  0  0  0  0  0
  101.3940  100.3470  106.4560 C   0  0  0  0  0  0  0  0  0  0  0  0
  101.2610   99.0920  106.4760 O   0  0  0  0  0  0  0  0  0  0  0  0
  102.4390  101.0490  106.6490 O   0  0  0  0  0  0  0  0  0  0  0  0
   94.8740  100.4700  102.4740 C   0  0  0  0  0  0  0  0  0  0  0  0
   94.0780   99.7180  103.3560 C   0  0  0  0  0  0  0  0  0  0  0  0
   94.6800  100.2660  101.1020 C   0  0  0  0  0  0  0  0  0  0  0  0
   93.1280   98.8040  102.8850 C   0  0  0  0  0  0  0  0  0  0  0  0
   93.7310   99.3530  100.6270 C   0  0  0  0  0  0  0  0  0  0  0  0
   92.9540   98.6210  101.5180 C   0  0  0  0  0  0  0  0  0  0  0  0
  1 19  1  6  0  0  0
  1 17  1  0  0  0  0
  2  1  1  0  0  0  0
  3  2  1  0  0  0  0
  3 10  1  0  0  0  0
  4  3  2  0  0  0  0
  5  4  1  0  0  0  0
  6  5  1  0  0  0  0
  7  8  1  0  0  0  0
  7  6  1  0  0  0  0
  8  4  1  0  0  0  0
  9  8  2  0  0  0  0
 10 16  1  0  0  0  0
 11 12  1  0  0  0  0
 11 10  2  0  0  0  0
 12 13  2  0  0  0  0
 13 15  1  0  0  0  0
 13 14  1  0  0  0  0
 16 15  2  0  0  0  0
 16 17  1  0  0  0  0
 17 18  1  0  0  0  0
 19 20  2  0  0  0  0
 19 21  1  0  0  0  0
 22  7  1  0  0  0  0
 22 23  1  0  0  0  0
 24 22  2  0  0  0  0
 25 23  2  0  0  0  0
 26 24  1  0  0  0  0
 26 27  2  0  0  0  0
 27 25  1  0  0  0  0
M  END
>  <minimizedAffinity>
-4.46999788

>  <CNNscore>
0.660709321

>  <CNNaffinity>
6.1006856

$$$$

 OpenBabel08272614073D

 27 30  0  0  1  0  0  0  0  0999 V2000
   95.8270  103.2340  103.6280 C   0  0  2  0  0  0  0  0  0  0  0  0
   97.0090  102.6350  102.8560 C   0  0  0  0  0  0  0  0  0  0  0  0
   96.9440  101.1190  102.8750 C   0  0  0  0  0  0  0  0  0  0  0  0
   97.8350  100.2780  103.4380 C   0  0  0  0  0  0  0  0  0  0  0  0
   97.6580   98.8140  103.7000 C   0  0  0  0  0  0  0  0  0  0  0  0
   98.4930   98.5980  104.9450 C   0  0  0  0  0  0  0  0  0  0  0  0
   99.5250   99.6040  104.8990 N   0  0  0  0  0  0  0  0  0  0  0  0
   99.1590  100.6540  104.0430 C   0  0  0  0  0  0  0  0  0  0  0  0
   99.7820  101.6610  103.7590 O   0  0  0  0  0  0  0  0  0  0  0  0
   95.6580  100.6660  102.2870 C   0  0  0  0  0  0  0  0  0  0  0  0
   95.5820   99.5690  101.4130 C   0  0  0  0  0  0  0  0  0  0  0  0
   94.3580   99.1840  100.8660 C   0  0  0  0  0  0  0  0  0  0  0  0
   93.2080   99.9010  101.1810 C   0  0  0  0  0  0  0  0  0  0  0  0
   91.6940   99.4080  100.5260 Cl  0  0  0  0  0  0  0  0  0  0  0  0
   93.2760  101.0140  102.0170 C   0  0  0  0  0  0  0  0  0  0  0  0
   94.5050  101.4330  102.5440 C   0  0  0  0  0  0  0  0  0  0  0  0
   94.5230  102.5250  103.4230 N   0  0  0  0  0  0  0  0  0  0  0  0
   93.8580  103.2650  103.1350 H   0  0  0  0  0  0  0  0  0  0  0  0
   95.6600  104.7420  103.2150 C   0  0  0  0  0  0  0  0  0  0  0  0
   94.9050  104.9760  102.2320 O   0  0  0  0  0  0  0  0  0  0  0  0
   96.3330  105.5560  103.9270 O   0  0  0  0  0  0  0  0  0  0  0  0
  100.6760   99.5590  105.7370 C   0  0  0  0  0  0  0  0  0  0  0  0
  100.8060  100.4380  106.8260 C   0  0  0  0  0  0  0  0  0  0  0  0
  101.7170   98.6470  105.5210 C   0  0  0  0  0  0  0  0  0  0  0  0
  101.9270  100.4060  107.6630 C   0  0  0  0  0  0  0  0  0  0  0  0
  102.8410   98.6120  106.3560 C   0  0  0  0  0  0  0  0  0  0  0  0
  102.9470   99.4910  107.4280 C   0  0  0  0  0  0  0  0  0  0  0  0
  1 19  1  6  0  0  0
  2  3  1  0  0  0  0
  2  1  1  0  0  0  0
  3  4  2  0  0  0  0
  4  5  1  0  0  0  0
  4  8  1  0  0  0  0
  5  6  1  0  0  0  0
  7  6  1  0  0  0  0
  7 22  1  0  0  0  0
  8  7  1  0  0  0  0
  9  8  2  0  0  0  0
 10 16  1  0  0  0  0
 10  3  1  0  0  0  0
 11 10  2  0  0  0  0
 12 13  2  0  0  0  0
 12 11  1  0  0  0  0
 13 15  1  0  0  0  0
 14 13  1  0  0  0  0
 15 16  2  0  0  0  0
 16 17  1  0  0  0  0
 17  1  1  0  0  0  0
 18 17  1  0  0  0  0
 19 21  1  0  0  0  0
 20 19  2  0  0  0  0
 22 23  1  0  0  0  0
 23 25  2  0  0  0  0
 24 22  2  0  0  0  0
 24 26  1  0  0  0  0
 26 27  2  0  0  0  0
 27 25  1  0  0  0  0
M  END
>  <minimizedAffinity>
-7.38133621

>  <CNNscore>
0.49068746

>  <CNNaffinity>
6.28322601

$$$$

 OpenBabel08272614073D

 27 30  0  0  1  0  0  0  0  0999 V2000
  103.0090  105.6210  104.0430 C   0  0  2  0  0  0  0  0  0  0  0  0
  101.8260  104.6470  103.9950 C   0  0  0  0  0  0  0  0  0  0  0  0
  101.1060  104.6170  105.3300 C   0  0  0  0  0  0  0  0  0  0  0  0
  100.9900  103.5640  106.1650 C   0  0  0  0  0  0  0  0  0  0  0  0
  100.5240  103.5820  107.5870 C   0  0  0  0  0  0  0  0  0  0  0  0
  101.3070  102.4420  108.2060 C   0  0  0  0  0  0  0  0  0  0  0  0
  101.5610  101.5170  107.1290 N   0  0  0  0  0  0  0  0  0  0  0  0
  101.4280  102.1520  105.8860 C   0  0  0  0  0  0  0  0  0  0  0  0
  101.5620  101.6830  104.7700 O   0  0  0  0  0  0  0  0  0  0  0  0
  100.6380  105.9830  105.6770 C   0  0  0  0  0  0  0  0  0  0  0  0
   99.3710  106.2190  106.2360 C   0  0  0  0  0  0  0  0  0  0  0  0
   98.9600  107.5190  106.5310 C   0  0  0  0  0  0  0  0  0  0  0  0
   99.8080  108.5870  106.2590 C   0  0  0  0  0  0  0  0  0  0  0  0
   99.3090  110.1880  106.6500 Cl  0  0  0  0  0  0  0  0  0  0  0  0
  101.0520  108.3690  105.6710 C   0  0  0  0  0  0  0  0  0  0  0  0
  101.4630  107.0730  105.3360 C   0  0  0  0  0  0  0  0  0  0  0  0
  102.7430  106.8910  104.7940 N   0  0  0  0  0  0  0  0  0  0  0  0
  102.9960  107.6500  104.1360 H   0  0  0  0  0  0  0  0  0  0  0  0
  103.4380  105.9760  102.5740 C   0  0  0  0  0  0  0  0  0  0  0  0
  103.4060  105.0340  101.7340 O   0  0  0  0  0  0  0  0  0  0  0  0
  103.7870  107.1900  102.4090 O   0  0  0  0  0  0  0  0  0  0  0  0
  102.0210  100.1880  107.3550 C   0  0  0  0  0  0  0  0  0  0  0  0
  102.2610   99.7240  108.6600 C   0  0  0  0  0  0  0  0  0  0  0  0
  102.2500   99.2920  106.3040 C   0  0  0  0  0  0  0  0  0  0  0  0
  102.7090   98.4200  108.9020 C   0  0  0  0  0  0  0  0  0  0  0  0
  102.6990   97.9870  106.5420 C   0  0  0  0  0  0  0  0  0  0  0  0
  102.9280   97.5500  107.8410 C   0  0  0  0  0  0  0  0  0  0  0  0
  1 19  1  6  0  0  0
  1 17  1  0  0  0  0
  2  1  1  0  0  0  0
  2  3  1  0  0  0  0
  3 10  1  0  0  0  0
  3  4  2  0  0  0  0
  4  5  1  0  0  0  0
  5  6  1  0  0  0  0
  7 22  1  0  0  0  0
  7  6  1  0  0  0  0
  8  4  1  0  0  0  0
  8  7  1  0  0  0  0
  9  8  2  0  0  0  0
 10 11  1  0  0  0  0
 11 12  2  0  0  0  0
 13 12  1  0  0  0  0
 13 14  1  0  0  0  0
 15 13  2  0  0  0  0
 16 15  1  0  0  0  0
 16 10  2  0  0  0  0
 17 16  1  0  0  0  0
 18 17  1  0  0  0  0
 20 19  2  0  0  0  0
 21 19  1  0  0  0  0
 22 23  1  0  0  0  0
 23 25  2  0  0  0  0
 24 26  1  0  0  0  0
 24 22  2  0  0  0  0
 26 27  2  0  0  0  0
 27 25  1  0  0  0  0
M  END
>  <minimizedAffinity>
-6.59746361

>  <CNNscore>
0.488783777

>  <CNNaffinity>
6.58317995

$$$$

 OpenBabel08272614073D

 27 30  0  0  1  0  0  0  0  0999 V2000
   98.3300  102.0900  104.8780 C   0  0  2  0  0  0  0  0  0  0  0  0
   98.3110  100.7120  104.2070 C   0  0  0  0  0  0  0  0  0  0  0  0
   99.7250  100.2040  103.9950 C   0  0  0  0  0  0  0  0  0  0  0  0
  100.3280   99.9560  102.8140 C   0  0  0  0  0  0  0  0  0  0  0  0
  101.7860   99.7150  102.5750 C   0  0  0  0  0  0  0  0  0  0  0  0
  101.9890  100.2770  101.1830 C   0  0  0  0  0  0  0  0  0  0  0  0
  100.7150  100.1430  100.5210 N   0  0  0  0  0  0  0  0  0  0  0  0
   99.6810   99.9930  101.4570 C   0  0  0  0  0  0  0  0  0  0  0  0
   98.4880   99.8490  101.2620 O   0  0  0  0  0  0  0  0  0  0  0  0
  100.4330  100.1360  105.2980 C   0  0  0  0  0  0  0  0  0  0  0  0
  101.2650   99.0570  105.6410 C   0  0  0  0  0  0  0  0  0  0  0  0
  101.8990   99.0200  106.8830 C   0  0  0  0  0  0  0  0  0  0  0  0
  101.6960  100.0550  107.7900 C   0  0  0  0  0  0  0  0  0  0  0  0
  102.5010  100.0210  109.3120 Cl  0  0  0  0  0  0  0  0  0  0  0  0
  100.8440  101.1120  107.4770 C   0  0  0  0  0  0  0  0  0  0  0  0
  100.1720  101.1430  106.2480 C   0  0  0  0  0  0  0  0  0  0  0  0
   99.3660  102.2500  105.9500 N   0  0  0  0  0  0  0  0  0  0  0  0
   98.8430  102.5840  106.7800 H   0  0  0  0  0  0  0  0  0  0  0  0
   96.9110  102.3790  105.4900 C   0  0  0  0  0  0  0  0  0  0  0  0
   96.8530  102.4960  106.7460 O   0  0  0  0  0  0  0  0  0  0  0  0
   95.9740  102.4460  104.6300 O   0  0  0  0  0  0  0  0  0  0  0  0
  100.5650  100.2940   99.1120 C   0  0  0  0  0  0  0  0  0  0  0  0
  101.5810  100.8870   98.3420 C   0  0  0  0  0  0  0  0  0  0  0  0
   99.4170   99.8620   98.4370 C   0  0  0  0  0  0  0  0  0  0  0  0
  101.4530  101.0400   96.9570 C   0  0  0  0  0  0  0  0  0  0  0  0
   99.2850  100.0140   97.0510 C   0  0  0  0  0  0  0  0  0  0  0  0
  100.3030  100.6020   96.3100 C   0  0  0  0  0  0  0  0  0  0  0  0
  1 19  1  1  0  0  0
  1 17  1  0  0  0  0
  2  1  1  0  0  0  0
  3  2  1  0  0  0  0
  3 10  1  0  0  0  0
  4  3  2  0  0  0  0
  5  4  1  0  0  0  0
  6  5  1  0  0  0  0
  7  6  1  0  0  0  0
  7  8  1  0  0  0  0
  8  4  1  0  0  0  0
  9  8  2  0  0  0  0
 10 11  2  0  0  0  0
 10 16  1  0  0  0  0
 11 12  1  0  0  0  0
 12 13  2  0  0  0  0
 13 14  1  0  0  0  0
 15 13  1  0  0  0  0
 16 15  2  0  0  0  0
 17 16  1  0  0  0  0
 17 18  1  0  0  0  0
 19 20  1  0  0  0  0
 21 19  2  0  0  0  0
 22  7  1  0  0  0  0
 23 22  2  0  0  0  0
 24 22  1  0  0  0  0
 25 23  1  0  0  0  0
 26 24  2  0  0  0  0
 27 25  2  0  0  0  0
 27 26  1  0  0  0  0
M  END
>  <minimizedAffinity>
-4.76531839

>  <CNNscore>
0.46383208

>  <CNNaffinity>
6.33359671

$$$$

 OpenBabel08272614073D

 27 30  0  0  1  0  0  0  0  0999 V2000
   99.9700  100.7740  106.0500 C   0  0  2  0  0  0  0  0  0  0  0  0
   99.7130  101.5440  104.7490 C   0  0  0  0  0  0  0  0  0  0  0  0
   98.5330  102.4840  104.9120 C   0  0  0  0  0  0  0  0  0  0  0  0
   97.3590  102.4320  104.2490 C   0  0  0  0  0  0  0  0  0  0  0  0
   96.1000  103.1720  104.5790 C   0  0  0  0  0  0  0  0  0  0  0  0
   95.0230  102.2170  104.1060 C   0  0  0  0  0  0  0  0  0  0  0  0
   95.6210  101.4570  103.0360 N   0  0  0  0  0  0  0  0  0  0  0  0
   97.0210  101.5180  103.1050 C   0  0  0  0  0  0  0  0  0  0  0  0
   97.8440  101.0070  102.3680 O   0  0  0  0  0  0  0  0  0  0  0  0
   98.7930  103.4270  106.0290 C   0  0  0  0  0  0  0  0  0  0  0  0
   98.4700  104.7910  105.9470 C   0  0  0  0  0  0  0  0  0  0  0  0
   98.7470  105.6490  107.0110 C   0  0  0  0  0  0  0  0  0  0  0  0
   99.3580  105.1490  108.1560 C   0  0  0  0  0  0  0  0  0  0  0  0
   99.6750  106.2050  109.4790 Cl  0  0  0  0  0  0  0  0  0  0  0  0
   99.7180  103.8060  108.2350 C   0  0  0  0  0  0  0  0  0  0  0  0
   99.4790  102.9400  107.1600 C   0  0  0  0  0  0  0  0  0  0  0  0
   99.8080  101.5850  107.3000 N   0  0  0  0  0  0  0  0  0  0  0  0
  100.6940  101.4530  107.8210 H   0  0  0  0  0  0  0  0  0  0  0  0
  101.4240  100.1780  106.0110 C   0  0  0  0  0  0  0  0  0  0  0  0
  102.3650  100.9990  105.8290 O   0  0  0  0  0  0  0  0  0  0  0  0
  101.4750   98.9130  106.1560 O   0  0  0  0  0  0  0  0  0  0  0  0
   94.8510  100.6560  102.1440 C   0  0  0  0  0  0  0  0  0  0  0  0
   94.1620  101.2410  101.0680 C   0  0  0  0  0  0  0  0  0  0  0  0
   94.7480   99.2670  102.2940 C   0  0  0  0  0  0  0  0  0  0  0  0
   93.4040  100.4700  100.1790 C   0  0  0  0  0  0  0  0  0  0  0  0
   93.9900   98.4920  101.4070 C   0  0  0  0  0  0  0  0  0  0  0  0
   93.3180   99.0930  100.3490 C   0  0  0  0  0  0  0  0  0  0  0  0
  1 19  1  6  0  0  0
  1 17  1  0  0  0  0
  2  3  1  0  0  0  0
  2  1  1  0  0  0  0
  3 10  1  0  0  0  0
  4  5  1  0  0  0  0
  4  3  2  0  0  0  0
  6  5  1  0  0  0  0
  7  8  1  0  0  0  0
  7  6  1  0  0  0  0
  8  4  1  0  0  0  0
  9  8  2  0  0  0  0
 10 16  1  0  0  0  0
 11 10  2  0  0  0  0
 11 12  1  0  0  0  0
 12 13  2  0  0  0  0
 13 15  1  0  0  0  0
 13 14  1  0  0  0  0
 16 17  1  0  0  0  0
 16 15  2  0  0  0  0
 17 18  1  0  0  0  0
 19 21  1  0  0  0  0
 20 19  2  0  0  0  0
 22 24  1  0  0  0  0
 22  7  1  0  0  0  0
 23 22  2  0  0  0  0
 25 27  2  0  0  0  0
 25 23  1  0  0  0  0
 26 24  2  0  0  0  0
 27 26  1  0  0  0  0
M  END
>  <minimizedAffinity>
-7.31152153

>  <CNNscore>
0.399990678

>  <CNNaffinity>
6.01014662

$$$$

 OpenBabel08272614073D

 27 30  0  0  1  0  0  0  0  0999 V2000
   95.1020  101.2380  102.3610 C   0  0  2  0  0  0  0  0  0  0  0  0
   96.3050  100.9300  103.2610 C   0  0  0  0  0  0  0  0  0  0  0  0
   95.9140  101.0240  104.7240 C   0  0  0  0  0  0  0  0  0  0  0  0
   96.3890  101.8980  105.6340 C   0  0  0  0  0  0  0  0  0  0  0  0
   95.8320  102.1810  106.9950 C   0  0  0  0  0  0  0  0  0  0  0  0
   96.1820  103.6420  107.1970 C   0  0  0  0  0  0  0  0  0  0  0  0
   97.3690  103.8680  106.4110 N   0  0  0  0  0  0  0  0  0  0  0  0
   97.5150  102.8750  105.4310 C   0  0  0  0  0  0  0  0  0  0  0  0
   98.3950  102.7440  104.6000 O   0  0  0  0  0  0  0  0  0  0  0  0
   94.8020  100.0820  105.0060 C   0  0  0  0  0  0  0  0  0  0  0  0
   94.7630   99.3020  106.1740 C   0  0  0  0  0  0  0  0  0  0  0  0
   93.7100   98.4140  106.3960 C   0  0  0  0  0  0  0  0  0  0  0  0
   92.7010   98.2930  105.4460 C   0  0  0  0  0  0  0  0  0  0  0  0
   91.3890   97.2150  105.7340 Cl  0  0  0  0  0  0  0  0  0  0  0  0
   92.7480   99.0330  104.2670 C   0  0  0  0  0  0  0  0  0  0  0  0
   93.8180   99.9020  104.0150 C   0  0  0  0  0  0  0  0  0  0  0  0
   93.8010  100.6670  102.8410 N   0  0  0  0  0  0  0  0  0  0  0  0
   93.4300  100.1320  102.0350 H   0  0  0  0  0  0  0  0  0  0  0  0
   95.3950  100.6980  100.9150 C   0  0  0  0  0  0  0  0  0  0  0  0
   94.4180  100.6660  100.1160 O   0  0  0  0  0  0  0  0  0  0  0  0
   96.6020  100.3380  100.7260 O   0  0  0  0  0  0  0  0  0  0  0  0
   98.1730  105.0350  106.5580 C   0  0  0  0  0  0  0  0  0  0  0  0
   98.9970  105.4760  105.5080 C   0  0  0  0  0  0  0  0  0  0  0  0
   98.1780  105.7900  107.7380 C   0  0  0  0  0  0  0  0  0  0  0  0
   99.7910  106.6220  105.6330 C   0  0  0  0  0  0  0  0  0  0  0  0
   98.9710  106.9370  107.8660 C   0  0  0  0  0  0  0  0  0  0  0  0
   99.7770  107.3550  106.8140 C   0  0  0  0  0  0  0  0  0  0  0  0
  1 19  1  6  0  0  0
  1 17  1  0  0  0  0
  1  2  1  0  0  0  0
  2  3  1  0  0  0  0
  3 10  1  0  0  0  0
  3  4  2  0  0  0  0
  4  5  1  0  0  0  0
  5  6  1  0  0  0  0
  7 22  1  0  0  0  0
  7  6  1  0  0  0  0
  8  4  1  0  0  0  0
  8  7  1  0  0  0  0
  9  8  2  0  0  0  0
 10 11  1  0  0  0  0
 11 12  2  0  0  0  0
 13 14  1  0  0  0  0
 13 12  1  0  0  0  0
 15 13  2  0  0  0  0
 16 15  1  0  0  0  0
 16 10  2  0  0  0  0
 17 16  1  0  0  0  0
 18 17  1  0  0  0  0
 20 19  2  0  0  0  0
 21 19  1  0  0  0  0
 22 24  1  0  0  0  0
 23 25  1  0  0  0  0
 23 22  2  0  0  0  0
 24 26  2  0  0  0  0
 25 27  2  0  0  0  0
 27 26  1  0  0  0  0
M  END
>  <minimizedAffinity>
-8.31214237

>  <CNNscore>
0.34483999

>  <CNNaffinity>
5.70544052

$$$$

 OpenBabel08272614073D

 27 30  0  0  1  0  0  0  0  0999 V2000
  101.6330  100.7010  106.5780 C   0  0  2  0  0  0  0  0  0  0  0  0
  100.4930  101.4530  107.2760 C   0  0  0  0  0  0  0  0  0  0  0  0
   99.4730  101.9330  106.2600 C   0  0  0  0  0  0  0  0  0  0  0  0
   99.1570  103.2130  105.9740 C   0  0  0  0  0  0  0  0  0  0  0  0
   98.3610  103.7090  104.8060 C   0  0  0  0  0  0  0  0  0  0  0  0
   98.9680  105.0730  104.5490 C   0  0  0  0  0  0  0  0  0  0  0  0
   99.4710  105.5200  105.8250 N   0  0  0  0  0  0  0  0  0  0  0  0
   99.6440  104.4370  106.6990 C   0  0  0  0  0  0  0  0  0  0  0  0
  100.0410  104.4390  107.8500 O   0  0  0  0  0  0  0  0  0  0  0  0
   98.9390  100.7750  105.5000 C   0  0  0  0  0  0  0  0  0  0  0  0
   97.5760  100.6520  105.1860 C   0  0  0  0  0  0  0  0  0  0  0  0
   97.1100   99.5390  104.4860 C   0  0  0  0  0  0  0  0  0  0  0  0
   98.0020   98.5410  104.1070 C   0  0  0  0  0  0  0  0  0  0  0  0
   97.4290   97.1820  103.2190 Cl  0  0  0  0  0  0  0  0  0  0  0  0
   99.3500   98.6340  104.4450 C   0  0  0  0  0  0  0  0  0  0  0  0
   99.8260   99.7280  105.1800 C   0  0  0  0  0  0  0  0  0  0  0  0
  101.1980   99.8090  105.4540 N   0  0  0  0  0  0  0  0  0  0  0  0
  101.6050   98.8820  105.6750 H   0  0  0  0  0  0  0  0  0  0  0  0
  102.4040   99.8410  107.6440 C   0  0  0  0  0  0  0  0  0  0  0  0
  102.3480   98.5880  107.5050 O   0  0  0  0  0  0  0  0  0  0  0  0
  102.9900  100.5260  108.5430 O   0  0  0  0  0  0  0  0  0  0  0  0
   99.8590  106.8700  106.0640 C   0  0  0  0  0  0  0  0  0  0  0  0
  101.1860  107.2830  105.8540 C   0  0  0  0  0  0  0  0  0  0  0  0
   98.9490  107.8360  106.5110 C   0  0  0  0  0  0  0  0  0  0  0  0
  101.5850  108.6060  106.0790 C   0  0  0  0  0  0  0  0  0  0  0  0
   99.3440  109.1600  106.7380 C   0  0  0  0  0  0  0  0  0  0  0  0
  100.6620  109.5460  106.5220 C   0  0  0  0  0  0  0  0  0  0  0  0
  1  2  1  0  0  0  0
  1 19  1  1  0  0  0
  3  2  1  0  0  0  0
  4  3  2  0  0  0  0
  4  8  1  0  0  0  0
  5  4  1  0  0  0  0
  6  5  1  0  0  0  0
  6  7  1  0  0  0  0
  7 22  1  0  0  0  0
  7  8  1  0  0  0  0
  8  9  2  0  0  0  0
 10  3  1  0  0  0  0
 11 10  1  0  0  0  0
 12 11  2  0  0  0  0
 13 15  2  0  0  0  0
 13 12  1  0  0  0  0
 14 13  1  0  0  0  0
 15 16  1  0  0  0  0
 16 17  1  0  0  0  0
 16 10  2  0  0  0  0
 17 18  1  0  0  0  0
 17  1  1  0  0  0  0
 19 21  1  0  0  0  0
 20 19  2  0  0  0  0
 22 24  1  0  0  0  0
 23 22  2  0  0  0  0
 23 25  1  0  0  0  0
 24 26  2  0  0  0  0
 25 27  2  0  0  0  0
 27 26  1  0  0  0  0
M  END
>  <minimizedAffinity>
-6.54795456

>  <CNNscore>
0.316680223

>  <CNNaffinity>
6.06768179

$$$$

 OpenBabel08272614073D

 27 30  0  0  1  0  0  0  0  0999 V2000
   95.7370  100.9120  102.3320 C   0  0  2  0  0  0  0  0  0  0  0  0
   96.7630  100.6830  103.4490 C   0  0  0  0  0  0  0  0  0  0  0  0
   96.1340  100.9230  104.8080 C   0  0  0  0  0  0  0  0  0  0  0  0
   96.4710  101.8780  105.6990 C   0  0  0  0  0  0  0  0  0  0  0  0
   95.7000  102.2980  106.9120 C   0  0  0  0  0  0  0  0  0  0  0  0
   96.0480  103.7680  107.0310 C   0  0  0  0  0  0  0  0  0  0  0  0
   97.3570  103.9060  106.4410 N   0  0  0  0  0  0  0  0  0  0  0  0
   97.6390  102.8200  105.5990 C   0  0  0  0  0  0  0  0  0  0  0  0
   98.6430  102.6000  104.9460 O   0  0  0  0  0  0  0  0  0  0  0  0
   94.9670  100.0230  104.9860 C   0  0  0  0  0  0  0  0  0  0  0  0
   94.7110   99.3620  106.1990 C   0  0  0  0  0  0  0  0  0  0  0  0
   93.6140   98.5090  106.3210 C   0  0  0  0  0  0  0  0  0  0  0  0
   92.7760   98.3050  105.2300 C   0  0  0  0  0  0  0  0  0  0  0  0
   91.4070   97.2730  105.3920 Cl  0  0  0  0  0  0  0  0  0  0  0  0
   93.0400   98.9250  104.0110 C   0  0  0  0  0  0  0  0  0  0  0  0
   94.1590   99.7560  103.8630 C   0  0  0  0  0  0  0  0  0  0  0  0
   94.3590  100.4020  102.6360 N   0  0  0  0  0  0  0  0  0  0  0  0
   94.1160   99.7950  101.8330 H   0  0  0  0  0  0  0  0  0  0  0  0
   96.2550  100.2300  101.0150 C   0  0  0  0  0  0  0  0  0  0  0  0
   97.5010  100.2640  100.8160 O   0  0  0  0  0  0  0  0  0  0  0  0
   95.3370   99.7310  100.2870 O   0  0  0  0  0  0  0  0  0  0  0  0
   98.1530  105.0740  106.6100 C   0  0  0  0  0  0  0  0  0  0  0  0
   98.2870  105.6740  107.8750 C   0  0  0  0  0  0  0  0  0  0  0  0
   98.8330  105.6720  105.5420 C   0  0  0  0  0  0  0  0  0  0  0  0
   99.0680  106.8200  108.0620 C   0  0  0  0  0  0  0  0  0  0  0  0
   99.6160  106.8190  105.7250 C   0  0  0  0  0  0  0  0  0  0  0  0
   99.7340  107.3940  106.9850 C   0  0  0  0  0  0  0  0  0  0  0  0
  1 19  1  6  0  0  0
  1 17  1  0  0  0  0
  1  2  1  0  0  0  0
  2  3  1  0  0  0  0
  3 10  1  0  0  0  0
  3  4  2  0  0  0  0
  4  5  1  0  0  0  0
  5  6  1  0  0  0  0
  7 22  1  0  0  0  0
  7  6  1  0  0  0  0
  8  4  1  0  0  0  0
  8  7  1  0  0  0  0
  9  8  2  0  0  0  0
 10 11  1  0  0  0  0
 11 12  2  0  0  0  0
 13 14  1  0  0  0  0
 13 12  1  0  0  0  0
 15 13  2  0  0  0  0
 16 15  1  0  0  0  0
 16 10  2  0  0  0  0
 17 16  1  0  0  0  0
 18 17  1  0  0  0  0
 20 19  1  0  0  0  0
 21 19  2  0  0  0  0
 22 23  1  0  0  0  0
 23 25  2  0  0  0  0
 24 26  1  0  0  0  0
 24 22  2  0  0  0  0
 26 27  2  0  0  0  0
 27 25  1  0  0  0  0
M  END
>  <minimizedAffinity>
-8.89785862

>  <CNNscore>
0.315692812

>  <CNNaffinity>
5.6492095

$$$$

 OpenBabel08272614073D

 27 30  0  0  1  0  0  0  0  0999 V2000
   96.1220  100.5740  104.7120 C   0  0  2  0  0  0  0  0  0  0  0  0
   96.7630  101.3090  105.8950 C   0  0  0  0  0  0  0  0  0  0  0  0
   97.7960  102.3070  105.4050 C   0  0  0  0  0  0  0  0  0  0  0  0
   99.1220  102.2840  105.6490 C   0  0  0  0  0  0  0  0  0  0  0  0
  100.1820  103.0930  104.9660 C   0  0  0  0  0  0  0  0  0  0  0  0
  101.3840  102.1710  105.0180 C   0  0  0  0  0  0  0  0  0  0  0  0
  101.1910  101.3470  106.1860 N   0  0  0  0  0  0  0  0  0  0  0  0
   99.8430  101.3470  106.5770 C   0  0  0  0  0  0  0  0  0  0  0  0
   99.3200  100.7720  107.5150 O   0  0  0  0  0  0  0  0  0  0  0  0
   97.1570  103.2750  104.4800 C   0  0  0  0  0  0  0  0  0  0  0  0
   97.4460  104.6490  104.5190 C   0  0  0  0  0  0  0  0  0  0  0  0
   96.8110  105.5310  103.6440 C   0  0  0  0  0  0  0  0  0  0  0  0
   95.8770  105.0450  102.7360 C   0  0  0  0  0  0  0  0  0  0  0  0
   95.1140  106.1310  101.6390 Cl  0  0  0  0  0  0  0  0  0  0  0  0
   95.5530  103.6900  102.7120 C   0  0  0  0  0  0  0  0  0  0  0  0
   96.1560  102.7990  103.6090 C   0  0  0  0  0  0  0  0  0  0  0  0
   95.8420  101.4360  103.5170 N   0  0  0  0  0  0  0  0  0  0  0  0
   94.8400  101.2820  103.3050 H   0  0  0  0  0  0  0  0  0  0  0  0
   94.7790   99.9110  105.1900 C   0  0  0  0  0  0  0  0  0  0  0  0
   94.6200   99.7980  106.4370 O   0  0  0  0  0  0  0  0  0  0  0  0
   94.0080   99.5500  104.2420 O   0  0  0  0  0  0  0  0  0  0  0  0
  102.2330  100.5510  106.7410 C   0  0  0  0  0  0  0  0  0  0  0  0
  103.2250  101.1310  107.5500 C   0  0  0  0  0  0  0  0  0  0  0  0
  102.3170   99.1720  106.5120 C   0  0  0  0  0  0  0  0  0  0  0  0
  104.2550  100.3640  108.1080 C   0  0  0  0  0  0  0  0  0  0  0  0
  103.3460   98.4010  107.0670 C   0  0  0  0  0  0  0  0  0  0  0  0
  104.3160   98.9960  107.8660 C   0  0  0  0  0  0  0  0  0  0  0  0
  1 19  1  1  0  0  0
  1  2  1  0  0  0  0
  3  4  2  0  0  0  0
  3  2  1  0  0  0  0
  4  8  1  0  0  0  0
  5  6  1  0  0  0  0
  5  4  1  0  0  0  0
  6  7  1  0  0  0  0
  7  8  1  0  0  0  0
  7 22  1  0  0  0  0
  8  9  2  0  0  0  0
 10 11  1  0  0  0  0
 10  3  1  0  0  0  0
 12 11  2  0  0  0  0
 13 12  1  0  0  0  0
 14 13  1  0  0  0  0
 15 13  2  0  0  0  0
 15 16  1  0  0  0  0
 16 10  2  0  0  0  0
 17 16  1  0  0  0  0
 17  1  1  0  0  0  0
 18 17  1  0  0  0  0
 19 20  1  0  0  0  0
 21 19  2  0  0  0  0
 22 23  1  0  0  0  0
 23 25  2  0  0  0  0
 24 22  2  0  0  0  0
 24 26  1  0  0  0  0
 26 27  2  0  0  0  0
 27 25  1  0  0  0  0
M  END
>  <minimizedAffinity>
-3.99492145

>  <CNNscore>
0.295278132

>  <CNNaffinity>
5.69548416

$$$$
