
 OpenBabel08282609593D

 29 31  0  0  1  0  0  0  0  0999 V2000
  102.5690  101.1130  107.5560 C   0  0  1  0  0  0  0  0  0  0  0  0
  102.2710  101.1540  106.0380 C   0  0  0  0  0  0  0  0  0  0  0  0
  101.6590  102.4810  105.5790 C   0  0  0  0  0  0  0  0  0  0  0  0
  100.3250  102.8640  106.3110 C   0  0  1  0  0  0  0  0  0  0  0  0
  100.2950  102.1470  107.6930 C   0  0  0  0  0  0  0  0  0  0  0  0
  101.6860  102.1150  108.3130 C   0  0  0  0  0  0  0  0  0  0  0  0
  102.4490   99.6470  108.0430 C   0  0  0  0  0  0  0  0  0  0  0  0
  103.3470   99.2690  109.2190 C   0  0  0  0  0  0  0  0  0  0  0  0
  104.3500   98.1240  109.0090 C   0  0  0  0  0  0  0  0  0  0  0  0
  103.9540   97.0030  109.4380 O   0  0  0  0  0  0  0  0  0  0  0  0
  105.4330   98.4200  108.4320 O   0  0  0  0  0  0  0  0  0  0  0  0
  100.1520  104.4030  106.3720 C   0  0  0  0  0  0  0  0  0  0  0  0
   99.4770  105.0570  107.4230 C   0  0  0  0  0  0  0  0  0  0  0  0
  100.6600  105.2320  105.3500 C   0  0  0  0  0  0  0  0  0  0  0  0
   99.3220  106.4450  107.4300 C   0  0  0  0  0  0  0  0  0  0  0  0
  100.5040  106.6210  105.3610 C   0  0  0  0  0  0  0  0  0  0  0  0
   99.8290  107.2330  106.4080 C   0  0  0  0  0  0  0  0  0  0  0  0
  101.3260  104.7070  104.3140 F   0  0  0  0  0  0  0  0  0  0  0  0
   98.6660  107.0280  108.4410 F   0  0  0  0  0  0  0  0  0  0  0  0
   98.8880  102.2280  105.2910 S   0  0  0  0  0  0  0  0  0  0  0  0
   98.1080  103.3420  104.7840 O   0  0  0  0  0  0  0  0  0  0  0  0
   98.1930  101.1610  105.9940 O   0  0  0  0  0  0  0  0  0  0  0  0
   99.6450  101.4530  103.8650 C   0  0  0  0  0  0  0  0  0  0  0  0
  100.8260  101.9850  103.3360 C   0  0  0  0  0  0  0  0  0  0  0  0
   99.0920  100.2820  103.3340 C   0  0  0  0  0  0  0  0  0  0  0  0
  101.4300  101.3660  102.2410 C   0  0  0  0  0  0  0  0  0  0  0  0
   99.6980   99.6720  102.2340 C   0  0  0  0  0  0  0  0  0  0  0  0
  100.8620  100.2150  101.6920 C   0  0  0  0  0  0  0  0  0  0  0  0
  101.6140   99.4570  100.3430 Cl  0  0  0  0  0  0  0  0  0  0  0  0
  1  7  1  1  0  0  0
  1  6  1  0  0  0  0
  2  1  1  0  0  0  0
  3  2  1  0  0  0  0
  3  4  1  0  0  0  0
  4 20  1  6  0  0  0
  4 12  1  0  0  0  0
  4  5  1  0  0  0  0
  5  6  1  0  0  0  0
  7  8  1  0  0  0  0
  9  8  1  0  0  0  0
  9 10  1  0  0  0  0
 11  9  2  0  0  0  0
 12 13  1  0  0  0  0
 13 15  2  0  0  0  0
 14 16  1  0  0  0  0
 14 12  2  0  0  0  0
 15 19  1  0  0  0  0
 16 17  2  0  0  0  0
 17 15  1  0  0  0  0
 18 14  1  0  0  0  0
 20 22  2  0  0  0  0
 21 20  2  0  0  0  0
 23 20  1  0  0  0  0
 24 23  1  0  0  0  0
 25 23  2  0  0  0  0
 26 24  2  0  0  0  0
 27 25  1  0  0  0  0
 28 27  2  0  0  0  0
 28 26  1  0  0  0  0
 29 28  1  0  0  0  0
M  END
>  <minimizedAffinity>
-8.9543438

>  <CNNscore>
0.801311195

>  <CNNaffinity>
7.18649435

$$$$

 OpenBabel08282609593D

 29 31  0  0  1  0  0  0  0  0999 V2000
  102.4000  100.8750  106.1190 C   0  0  1  0  0  0  0  0  0  0  0  0
  101.2400  100.8540  105.0970 C   0  0  0  0  0  0  0  0  0  0  0  0
  100.5090  102.1960  104.9860 C   0  0  0  0  0  0  0  0  0  0  0  0
   99.9090  102.7170  106.3390 C   0  0  1  0  0  0  0  0  0  0  0  0
  100.7100  102.0810  107.5130 C   0  0  0  0  0  0  0  0  0  0  0  0
  102.1890  101.9810  107.1630 C   0  0  0  0  0  0  0  0  0  0  0  0
  102.5650   99.4510  106.7080 C   0  0  0  0  0  0  0  0  0  0  0  0
  103.0090   99.3890  108.1670 C   0  0  0  0  0  0  0  0  0  0  0  0
  104.0910   98.3640  108.5400 C   0  0  0  0  0  0  0  0  0  0  0  0
  105.2360   98.6270  108.0730 O   0  0  0  0  0  0  0  0  0  0  0  0
  103.7280   97.3970  109.2660 O   0  0  0  0  0  0  0  0  0  0  0  0
   99.8480  104.2660  106.3540 C   0  0  0  0  0  0  0  0  0  0  0  0
   99.3190  105.0010  107.4350 C   0  0  0  0  0  0  0  0  0  0  0  0
  100.3150  105.0220  105.2590 C   0  0  0  0  0  0  0  0  0  0  0  0
   99.2610  106.3960  107.4000 C   0  0  0  0  0  0  0  0  0  0  0  0
  100.2560  106.4180  105.2290 C   0  0  0  0  0  0  0  0  0  0  0  0
   99.7240  107.1120  106.3070 C   0  0  0  0  0  0  0  0  0  0  0  0
  100.8440  104.4170  104.1890 F   0  0  0  0  0  0  0  0  0  0  0  0
   98.7430  107.0580  108.4430 F   0  0  0  0  0  0  0  0  0  0  0  0
   98.1320  102.1350  106.4610 S   0  0  0  0  0  0  0  0  0  0  0  0
   97.5060  102.6950  107.6440 O   0  0  0  0  0  0  0  0  0  0  0  0
   98.0480  100.6980  106.2480 O   0  0  0  0  0  0  0  0  0  0  0  0
   97.3080  102.8790  105.0550 C   0  0  0  0  0  0  0  0  0  0  0  0
   97.1420  102.1370  103.8810 C   0  0  0  0  0  0  0  0  0  0  0  0
   96.7750  104.1680  105.1630 C   0  0  0  0  0  0  0  0  0  0  0  0
   96.4780  102.7070  102.7940 C   0  0  0  0  0  0  0  0  0  0  0  0
   96.1170  104.7350  104.0700 C   0  0  0  0  0  0  0  0  0  0  0  0
   95.9710  104.0040  102.8910 C   0  0  0  0  0  0  0  0  0  0  0  0
   95.1510  104.6990  101.5470 Cl  0  0  0  0  0  0  0  0  0  0  0  0
  1  7  1  1  0  0  0
  1  6  1  0  0  0  0
  2  1  1  0  0  0  0
  3  2  1  0  0  0  0
  3  4  1  0  0  0  0
  4 12  1  0  0  0  0
  4 20  1  1  0  0  0
  4  5  1  0  0  0  0
  6  5  1  0  0  0  0
  7  8  1  0  0  0  0
  8  9  1  0  0  0  0
  9 11  1  0  0  0  0
 10  9  2  0  0  0  0
 12 13  1  0  0  0  0
 14 12  2  0  0  0  0
 15 13  2  0  0  0  0
 15 19  1  0  0  0  0
 16 14  1  0  0  0  0
 16 17  2  0  0  0  0
 17 15  1  0  0  0  0
 18 14  1  0  0  0  0
 20 21  2  0  0  0  0
 22 20  2  0  0  0  0
 23 25  1  0  0  0  0
 23 20  1  0  0  0  0
 24 23  2  0  0  0  0
 26 28  2  0  0  0  0
 26 24  1  0  0  0  0
 27 25  2  0  0  0  0
 28 27  1  0  0  0  0
 29 28  1  0  0  0  0
M  END
>  <minimizedAffinity>
-8.18164158

>  <CNNscore>
0.750124514

>  <CNNaffinity>
6.9069047

$$$$

 OpenBabel08282609593D

 29 31  0  0  1  0  0  0  0  0999 V2000
   98.0190  103.8730  107.7010 C   0  0  1  0  0  0  0  0  0  0  0  0
   99.1750  102.8650  107.9000 C   0  0  0  0  0  0  0  0  0  0  0  0
  100.4120  103.1910  107.0580 C   0  0  0  0  0  0  0  0  0  0  0  0
  100.1390  103.2660  105.5140 C   0  0  1  0  0  0  0  0  0  0  0  0
   98.6340  103.5960  105.2930 C   0  0  0  0  0  0  0  0  0  0  0  0
   98.1390  104.5810  106.3440 C   0  0  0  0  0  0  0  0  0  0  0  0
   96.6760  103.1360  107.9320 C   0  0  0  0  0  0  0  0  0  0  0  0
   95.8740  102.8200  106.6710 C   0  0  0  0  0  0  0  0  0  0  0  0
   95.1900  103.9910  105.9500 C   0  0  0  0  0  0  0  0  0  0  0  0
   95.0240  103.8100  104.7100 O   0  0  0  0  0  0  0  0  0  0  0  0
   94.8650  104.9810  106.6620 O   0  0  0  0  0  0  0  0  0  0  0  0
  101.1290  104.2420  104.8280 C   0  0  0  0  0  0  0  0  0  0  0  0
  102.0370  103.8340  103.8290 C   0  0  0  0  0  0  0  0  0  0  0  0
  101.1760  105.6040  105.1890 C   0  0  0  0  0  0  0  0  0  0  0  0
  102.9290  104.7400  103.2510 C   0  0  0  0  0  0  0  0  0  0  0  0
  102.0690  106.5080  104.6070 C   0  0  0  0  0  0  0  0  0  0  0  0
  102.9540  106.0730  103.6310 C   0  0  0  0  0  0  0  0  0  0  0  0
  100.3460  106.0910  106.1210 F   0  0  0  0  0  0  0  0  0  0  0  0
  103.7830  104.3120  102.3120 F   0  0  0  0  0  0  0  0  0  0  0  0
  100.4850  101.5820  104.7700 S   0  0  0  0  0  0  0  0  0  0  0  0
  101.2560  101.7270  103.5490 O   0  0  0  0  0  0  0  0  0  0  0  0
   99.2710  100.7810  104.7310 O   0  0  0  0  0  0  0  0  0  0  0  0
  101.5600  100.7700  105.9510 C   0  0  0  0  0  0  0  0  0  0  0  0
  101.3730   99.4130  106.2340 C   0  0  0  0  0  0  0  0  0  0  0  0
  102.6200  101.4780  106.5270 C   0  0  0  0  0  0  0  0  0  0  0  0
  102.2270   98.7740  107.1350 C   0  0  0  0  0  0  0  0  0  0  0  0
  103.4670  100.8350  107.4320 C   0  0  0  0  0  0  0  0  0  0  0  0
  103.2680   99.4880  107.7330 C   0  0  0  0  0  0  0  0  0  0  0  0
  104.3170   98.6920  108.8400 Cl  0  0  0  0  0  0  0  0  0  0  0  0
  1  2  1  0  0  0  0
  1  7  1  6  0  0  0
  3  2  1  0  0  0  0
  4 20  1  6  0  0  0
  4  3  1  0  0  0  0
  5  4  1  0  0  0  0
  5  6  1  0  0  0  0
  6  1  1  0  0  0  0
  8  7  1  0  0  0  0
  9 11  1  0  0  0  0
  9  8  1  0  0  0  0
 10  9  2  0  0  0  0
 12 14  1  0  0  0  0
 12  4  1  0  0  0  0
 13 12  2  0  0  0  0
 14 18  1  0  0  0  0
 15 17  2  0  0  0  0
 15 13  1  0  0  0  0
 16 14  2  0  0  0  0
 17 16  1  0  0  0  0
 19 15  1  0  0  0  0
 20 23  1  0  0  0  0
 21 20  2  0  0  0  0
 22 20  2  0  0  0  0
 23 24  2  0  0  0  0
 23 25  1  0  0  0  0
 24 26  1  0  0  0  0
 25 27  2  0  0  0  0
 26 28  2  0  0  0  0
 27 28  1  0  0  0  0
 28 29  1  0  0  0  0
M  END
>  <minimizedAffinity>
-9.17578506

>  <CNNscore>
0.719812334

>  <CNNaffinity>
6.89867926

$$$$

 OpenBabel08282609593D

 29 31  0  0  1  0  0  0  0  0999 V2000
  101.8280  100.7950  105.9140 C   0  0  1  0  0  0  0  0  0  0  0  0
  100.6290  100.4700  106.8360 C   0  0  0  0  0  0  0  0  0  0  0  0
   99.2720  100.6990  106.1630 C   0  0  0  0  0  0  0  0  0  0  0  0
   99.0530  102.1610  105.6340 C   0  0  1  0  0  0  0  0  0  0  0  0
  100.4450  102.8080  105.3770 C   0  0  0  0  0  0  0  0  0  0  0  0
  101.4190  101.7820  104.8120 C   0  0  0  0  0  0  0  0  0  0  0  0
  103.0150  101.2610  106.7950 C   0  0  0  0  0  0  0  0  0  0  0  0
  103.2390  100.4600  108.0760 C   0  0  0  0  0  0  0  0  0  0  0  0
  103.8550   99.0600  107.9410 C   0  0  0  0  0  0  0  0  0  0  0  0
  103.0240   98.1530  107.6500 O   0  0  0  0  0  0  0  0  0  0  0  0
  105.1010   98.9710  108.1210 O   0  0  0  0  0  0  0  0  0  0  0  0
   98.0950  102.1670  104.4150 C   0  0  0  0  0  0  0  0  0  0  0  0
   97.0570  103.1080  104.2630 C   0  0  0  0  0  0  0  0  0  0  0  0
   98.2130  101.2020  103.3930 C   0  0  0  0  0  0  0  0  0  0  0  0
   96.2000  103.0660  103.1600 C   0  0  0  0  0  0  0  0  0  0  0  0
   97.3550  101.1640  102.2910 C   0  0  0  0  0  0  0  0  0  0  0  0
   96.3380  102.1020  102.1730 C   0  0  0  0  0  0  0  0  0  0  0  0
   99.1750  100.2710  103.4420 F   0  0  0  0  0  0  0  0  0  0  0  0
   95.2190  103.9720  103.0550 F   0  0  0  0  0  0  0  0  0  0  0  0
   98.1860  103.1480  106.9700 S   0  0  0  0  0  0  0  0  0  0  0  0
   98.6190  102.6980  108.2800 O   0  0  0  0  0  0  0  0  0  0  0  0
   96.7580  103.2280  106.7020 O   0  0  0  0  0  0  0  0  0  0  0  0
   98.8060  104.8190  106.7810 C   0  0  0  0  0  0  0  0  0  0  0  0
   99.2940  105.2370  105.5390 C   0  0  0  0  0  0  0  0  0  0  0  0
   98.7310  105.7130  107.8550 C   0  0  0  0  0  0  0  0  0  0  0  0
   99.7530  106.5460  105.3850 C   0  0  0  0  0  0  0  0  0  0  0  0
   99.1980  107.0190  107.6960 C   0  0  0  0  0  0  0  0  0  0  0  0
   99.7070  107.4300  106.4640 C   0  0  0  0  0  0  0  0  0  0  0  0
  100.2730  109.0430  106.2650 Cl  0  0  0  0  0  0  0  0  0  0  0  0
  1  7  1  1  0  0  0
  1  2  1  0  0  0  0
  3  2  1  0  0  0  0
  4  3  1  0  0  0  0
  4 20  1  1  0  0  0
  5  4  1  0  0  0  0
  6  5  1  0  0  0  0
  6  1  1  0  0  0  0
  7  8  1  0  0  0  0
  9  8  1  0  0  0  0
  9 11  1  0  0  0  0
 10  9  2  0  0  0  0
 12  4  1  0  0  0  0
 13 12  1  0  0  0  0
 14 18  1  0  0  0  0
 14 12  2  0  0  0  0
 15 13  2  0  0  0  0
 16 14  1  0  0  0  0
 17 16  2  0  0  0  0
 17 15  1  0  0  0  0
 19 15  1  0  0  0  0
 20 21  2  0  0  0  0
 22 20  2  0  0  0  0
 23 20  1  0  0  0  0
 23 25  1  0  0  0  0
 24 23  2  0  0  0  0
 26 24  1  0  0  0  0
 26 28  2  0  0  0  0
 27 25  2  0  0  0  0
 28 27  1  0  0  0  0
 29 28  1  0  0  0  0
M  END
>  <minimizedAffinity>
-8.76593876

>  <CNNscore>
0.672950923

>  <CNNaffinity>
6.95413208

$$$$

 OpenBabel08282609593D

 29 31  0  0  1  0  0  0  0  0999 V2000
  103.0190  100.7820  107.8050 C   0  0  1  0  0  0  0  0  0  0  0  0
  102.7720  100.4050  106.3250 C   0  0  0  0  0  0  0  0  0  0  0  0
  102.2600  101.5760  105.4810 C   0  0  0  0  0  0  0  0  0  0  0  0
  100.9290  102.2190  106.0120 C   0  0  1  0  0  0  0  0  0  0  0  0
  100.8120  101.9270  107.5360 C   0  0  0  0  0  0  0  0  0  0  0  0
  102.1770  102.0020  108.2060 C   0  0  0  0  0  0  0  0  0  0  0  0
  102.7920   99.5230  108.6790 C   0  0  0  0  0  0  0  0  0  0  0  0
  103.2240   98.1990  108.0510 C   0  0  0  0  0  0  0  0  0  0  0  0
  104.7200   97.8500  108.0840 C   0  0  0  0  0  0  0  0  0  0  0  0
  105.3480   98.3570  109.0560 O   0  0  0  0  0  0  0  0  0  0  0  0
  105.1460   97.1000  107.1630 O   0  0  0  0  0  0  0  0  0  0  0  0
  100.8520  103.7190  105.6270 C   0  0  0  0  0  0  0  0  0  0  0  0
  100.1150  104.6620  106.3720 C   0  0  0  0  0  0  0  0  0  0  0  0
  101.5150  104.2120  104.4850 C   0  0  0  0  0  0  0  0  0  0  0  0
  100.0510  106.0010  105.9800 C   0  0  0  0  0  0  0  0  0  0  0  0
  101.4500  105.5530  104.0970 C   0  0  0  0  0  0  0  0  0  0  0  0
  100.7110  106.4550  104.8480 C   0  0  0  0  0  0  0  0  0  0  0  0
  102.2500  103.3960  103.7180 F   0  0  0  0  0  0  0  0  0  0  0  0
   99.3330  106.8660  106.7090 F   0  0  0  0  0  0  0  0  0  0  0  0
   99.4890  101.3940  105.1440 S   0  0  0  0  0  0  0  0  0  0  0  0
   99.4230   99.9920  105.5140 O   0  0  0  0  0  0  0  0  0  0  0  0
   99.4770  101.7380  103.7310 O   0  0  0  0  0  0  0  0  0  0  0  0
   98.0300  102.1660  105.8410 C   0  0  0  0  0  0  0  0  0  0  0  0
   97.9010  102.2680  107.2300 C   0  0  0  0  0  0  0  0  0  0  0  0
   97.0660  102.7240  104.9930 C   0  0  0  0  0  0  0  0  0  0  0  0
   96.7760  102.8920  107.7730 C   0  0  0  0  0  0  0  0  0  0  0  0
   95.9410  103.3420  105.5420 C   0  0  0  0  0  0  0  0  0  0  0  0
   95.8000  103.4230  106.9270 C   0  0  0  0  0  0  0  0  0  0  0  0
   94.4180  104.1940  107.6050 Cl  0  0  0  0  0  0  0  0  0  0  0  0
  1  6  1  0  0  0  0
  1  7  1  1  0  0  0
  2  1  1  0  0  0  0
  3  4  1  0  0  0  0
  3  2  1  0  0  0  0
  4 20  1  6  0  0  0
  4  5  1  0  0  0  0
  5  6  1  0  0  0  0
  8  9  1  0  0  0  0
  8  7  1  0  0  0  0
  9 10  1  0  0  0  0
 11  9  2  0  0  0  0
 12  4  1  0  0  0  0
 12 13  1  0  0  0  0
 14 12  2  0  0  0  0
 15 13  2  0  0  0  0
 15 19  1  0  0  0  0
 16 14  1  0  0  0  0
 16 17  2  0  0  0  0
 17 15  1  0  0  0  0
 18 14  1  0  0  0  0
 20 21  2  0  0  0  0
 20 23  1  0  0  0  0
 22 20  2  0  0  0  0
 23 24  1  0  0  0  0
 24 26  2  0  0  0  0
 25 27  1  0  0  0  0
 25 23  2  0  0  0  0
 27 28  2  0  0  0  0
 28 29  1  0  0  0  0
 28 26  1  0  0  0  0
M  END
>  <minimizedAffinity>
-8.4933672

>  <CNNscore>
0.671411335

>  <CNNaffinity>
6.93965101

$$$$

 OpenBabel08282609593D

 29 31  0  0  1  0  0  0  0  0999 V2000
  102.0430  100.0450  106.4730 C   0  0  1  0  0  0  0  0  0  0  0  0
  100.5790  100.1810  105.9920 C   0  0  0  0  0  0  0  0  0  0  0  0
  100.2630  101.5580  105.3990 C   0  0  0  0  0  0  0  0  0  0  0  0
  100.5290  102.7560  106.3770 C   0  0  1  0  0  0  0  0  0  0  0  0
  101.5890  102.3130  107.4270 C   0  0  0  0  0  0  0  0  0  0  0  0
  102.6450  101.4230  106.7840 C   0  0  0  0  0  0  0  0  0  0  0  0
  102.0840   99.0390  107.6510 C   0  0  0  0  0  0  0  0  0  0  0  0
  103.2010   99.2620  108.6680 C   0  0  0  0  0  0  0  0  0  0  0  0
  104.3010   98.1950  108.7630 C   0  0  0  0  0  0  0  0  0  0  0  0
  103.9770   97.1760  109.4370 O   0  0  0  0  0  0  0  0  0  0  0  0
  105.3820   98.4400  108.1590 O   0  0  0  0  0  0  0  0  0  0  0  0
  100.8920  104.0400  105.5870 C   0  0  0  0  0  0  0  0  0  0  0  0
  100.4190  105.3190  105.9460 C   0  0  0  0  0  0  0  0  0  0  0  0
  101.7140  103.9820  104.4430 C   0  0  0  0  0  0  0  0  0  0  0  0
  100.7500  106.4490  105.1950 C   0  0  0  0  0  0  0  0  0  0  0  0
  102.0440  105.1150  103.6940 C   0  0  0  0  0  0  0  0  0  0  0  0
  101.5570  106.3590  104.0710 C   0  0  0  0  0  0  0  0  0  0  0  0
  102.2210  102.8140  104.0260 F   0  0  0  0  0  0  0  0  0  0  0  0
  100.2730  107.6450  105.5630 F   0  0  0  0  0  0  0  0  0  0  0  0
   98.9360  103.1460  107.2820 S   0  0  0  0  0  0  0  0  0  0  0  0
   98.9260  104.5390  107.6920 O   0  0  0  0  0  0  0  0  0  0  0  0
   98.6520  102.1280  108.2810 O   0  0  0  0  0  0  0  0  0  0  0  0
   97.6520  102.9780  106.0440 C   0  0  0  0  0  0  0  0  0  0  0  0
   97.2950  104.0840  105.2660 C   0  0  0  0  0  0  0  0  0  0  0  0
   97.0660  101.7270  105.8150 C   0  0  0  0  0  0  0  0  0  0  0  0
   96.3130  103.9460  104.2830 C   0  0  0  0  0  0  0  0  0  0  0  0
   96.0800  101.5980  104.8360 C   0  0  0  0  0  0  0  0  0  0  0  0
   95.7070  102.7060  104.0750 C   0  0  0  0  0  0  0  0  0  0  0  0
   94.4980  102.5440  102.8610 Cl  0  0  0  0  0  0  0  0  0  0  0  0
  1  6  1  0  0  0  0
  1  7  1  1  0  0  0
  2  1  1  0  0  0  0
  3  2  1  0  0  0  0
  3  4  1  0  0  0  0
  4 20  1  1  0  0  0
  4  5  1  0  0  0  0
  6  5  1  0  0  0  0
  7  8  1  0  0  0  0
  8  9  1  0  0  0  0
  9 10  1  0  0  0  0
 11  9  2  0  0  0  0
 12 13  1  0  0  0  0
 12  4  1  0  0  0  0
 14 12  2  0  0  0  0
 15 19  1  0  0  0  0
 15 13  2  0  0  0  0
 16 17  2  0  0  0  0
 16 14  1  0  0  0  0
 17 15  1  0  0  0  0
 18 14  1  0  0  0  0
 20 21  2  0  0  0  0
 20 22  2  0  0  0  0
 23 20  1  0  0  0  0
 24 23  2  0  0  0  0
 25 23  1  0  0  0  0
 26 24  1  0  0  0  0
 27 25  2  0  0  0  0
 28 26  2  0  0  0  0
 28 27  1  0  0  0  0
 29 28  1  0  0  0  0
M  END
>  <minimizedAffinity>
-8.43451023

>  <CNNscore>
0.647075832

>  <CNNaffinity>
7.09440613

$$$$

 OpenBabel08282609593D

 29 31  0  0  1  0  0  0  0  0999 V2000
  100.7940  101.1900  105.5110 C   0  0  1  0  0  0  0  0  0  0  0  0
   99.7030  101.7320  104.5580 C   0  0  0  0  0  0  0  0  0  0  0  0
   99.2590  103.1580  104.8980 C   0  0  0  0  0  0  0  0  0  0  0  0
   98.7090  103.3310  106.3590 C   0  0  1  0  0  0  0  0  0  0  0  0
   99.3110  102.2070  107.2500 C   0  0  0  0  0  0  0  0  0  0  0  0
  100.7560  101.9240  106.8590 C   0  0  0  0  0  0  0  0  0  0  0  0
  100.6440   99.6500  105.6070 C   0  0  0  0  0  0  0  0  0  0  0  0
  101.9510   98.8680  105.7190 C   0  0  0  0  0  0  0  0  0  0  0  0
  102.5640   98.7010  107.1180 C   0  0  0  0  0  0  0  0  0  0  0  0
  102.1810   97.6640  107.7300 O   0  0  0  0  0  0  0  0  0  0  0  0
  103.3750   99.5930  107.4900 O   0  0  0  0  0  0  0  0  0  0  0  0
   98.9570  104.7730  106.8710 C   0  0  0  0  0  0  0  0  0  0  0  0
   99.4230  105.8120  106.0390 C   0  0  0  0  0  0  0  0  0  0  0  0
   98.7380  105.1120  108.2220 C   0  0  0  0  0  0  0  0  0  0  0  0
   99.6560  107.0930  106.5450 C   0  0  0  0  0  0  0  0  0  0  0  0
   98.9700  106.3960  108.7240 C   0  0  0  0  0  0  0  0  0  0  0  0
   99.4350  107.3950  107.8800 C   0  0  0  0  0  0  0  0  0  0  0  0
   98.2860  104.1980  109.0900 F   0  0  0  0  0  0  0  0  0  0  0  0
  100.1070  108.0510  105.7240 F   0  0  0  0  0  0  0  0  0  0  0  0
   96.8490  103.1150  106.3190 S   0  0  0  0  0  0  0  0  0  0  0  0
   96.2000  104.4110  106.2290 O   0  0  0  0  0  0  0  0  0  0  0  0
   96.4180  102.1970  107.3620 O   0  0  0  0  0  0  0  0  0  0  0  0
   96.5170  102.2770  104.7710 C   0  0  0  0  0  0  0  0  0  0  0  0
   96.4450  100.8810  104.7450 C   0  0  0  0  0  0  0  0  0  0  0  0
   96.2610  103.0250  103.6160 C   0  0  0  0  0  0  0  0  0  0  0  0
   96.1610  100.2280  103.5440 C   0  0  0  0  0  0  0  0  0  0  0  0
   95.9830  102.3670  102.4170 C   0  0  0  0  0  0  0  0  0  0  0  0
   95.9350  100.9730  102.3840 C   0  0  0  0  0  0  0  0  0  0  0  0
   95.5830  100.1620  100.9080 Cl  0  0  0  0  0  0  0  0  0  0  0  0
  1  7  1  1  0  0  0
  1  6  1  0  0  0  0
  2  3  1  0  0  0  0
  2  1  1  0  0  0  0
  3  4  1  0  0  0  0
  4 20  1  6  0  0  0
  4 12  1  0  0  0  0
  4  5  1  0  0  0  0
  6  5  1  0  0  0  0
  7  8  1  0  0  0  0
  8  9  1  0  0  0  0
  9 11  2  0  0  0  0
  9 10  1  0  0  0  0
 12 14  1  0  0  0  0
 13 15  1  0  0  0  0
 13 12  2  0  0  0  0
 14 16  2  0  0  0  0
 14 18  1  0  0  0  0
 15 17  2  0  0  0  0
 17 16  1  0  0  0  0
 19 15  1  0  0  0  0
 20 22  2  0  0  0  0
 21 20  2  0  0  0  0
 23 20  1  0  0  0  0
 24 23  1  0  0  0  0
 25 23  2  0  0  0  0
 26 24  2  0  0  0  0
 27 25  1  0  0  0  0
 28 27  2  0  0  0  0
 28 26  1  0  0  0  0
 29 28  1  0  0  0  0
M  END
>  <minimizedAffinity>
-8.54021835

>  <CNNscore>
0.620481372

>  <CNNaffinity>
6.86722422

$$$$

 OpenBabel08282609593D

 29 31  0  0  1  0  0  0  0  0999 V2000
  102.3230  100.7210  107.0070 C   0  0  1  0  0  0  0  0  0  0  0  0
  102.3200  101.4670  105.6520 C   0  0  0  0  0  0  0  0  0  0  0  0
  101.6290  102.8330  105.7160 C   0  0  0  0  0  0  0  0  0  0  0  0
  100.1380  102.7780  106.2050 C   0  0  1  0  0  0  0  0  0  0  0  0
   99.9430  101.4910  107.0580 C   0  0  0  0  0  0  0  0  0  0  0  0
  101.1790  101.2150  107.9050 C   0  0  0  0  0  0  0  0  0  0  0  0
  102.3180   99.1970  106.7310 C   0  0  0  0  0  0  0  0  0  0  0  0
  102.3970   98.3030  107.9670 C   0  0  0  0  0  0  0  0  0  0  0  0
  103.7700   98.1340  108.6350 C   0  0  0  0  0  0  0  0  0  0  0  0
  104.6590   97.6510  107.8770 O   0  0  0  0  0  0  0  0  0  0  0  0
  103.8620   98.4990  109.8400 O   0  0  0  0  0  0  0  0  0  0  0  0
   99.7430  104.0980  106.9150 C   0  0  0  0  0  0  0  0  0  0  0  0
   99.0780  104.1290  108.1580 C   0  0  0  0  0  0  0  0  0  0  0  0
  100.0240  105.3510  106.3320 C   0  0  0  0  0  0  0  0  0  0  0  0
   98.7190  105.3390  108.7560 C   0  0  0  0  0  0  0  0  0  0  0  0
   99.6650  106.5600  106.9330 C   0  0  0  0  0  0  0  0  0  0  0  0
   99.0050  106.5550  108.1540 C   0  0  0  0  0  0  0  0  0  0  0  0
  100.6630  105.4270  105.1570 F   0  0  0  0  0  0  0  0  0  0  0  0
   98.0790  105.3260  109.9320 F   0  0  0  0  0  0  0  0  0  0  0  0
   99.0280  102.6560  104.7000 S   0  0  0  0  0  0  0  0  0  0  0  0
   99.7030  101.9270  103.6430 O   0  0  0  0  0  0  0  0  0  0  0  0
   98.4480  103.9530  104.3850 O   0  0  0  0  0  0  0  0  0  0  0  0
   97.6570  101.6290  105.2230 C   0  0  0  0  0  0  0  0  0  0  0  0
   96.7130  102.1420  106.1190 C   0  0  0  0  0  0  0  0  0  0  0  0
   97.5000  100.3490  104.6790 C   0  0  0  0  0  0  0  0  0  0  0  0
   95.6310  101.3500  106.5070 C   0  0  0  0  0  0  0  0  0  0  0  0
   96.4180   99.5610  105.0760 C   0  0  0  0  0  0  0  0  0  0  0  0
   95.4890  100.0620  105.9870 C   0  0  0  0  0  0  0  0  0  0  0  0
   94.1510   99.0940  106.4690 Cl  0  0  0  0  0  0  0  0  0  0  0  0
  1  7  1  6  0  0  0
  1  6  1  0  0  0  0
  2  3  1  0  0  0  0
  2  1  1  0  0  0  0
  3  4  1  0  0  0  0
  4 20  1  6  0  0  0
  4 12  1  0  0  0  0
  4  5  1  0  0  0  0
  5  6  1  0  0  0  0
  7  8  1  0  0  0  0
  8  9  1  0  0  0  0
  9 11  1  0  0  0  0
 10  9  2  0  0  0  0
 12 13  1  0  0  0  0
 13 15  2  0  0  0  0
 14 12  2  0  0  0  0
 14 16  1  0  0  0  0
 15 19  1  0  0  0  0
 16 17  2  0  0  0  0
 17 15  1  0  0  0  0
 18 14  1  0  0  0  0
 20 23  1  0  0  0  0
 21 20  2  0  0  0  0
 22 20  2  0  0  0  0
 23 24  1  0  0  0  0
 24 26  2  0  0  0  0
 25 27  1  0  0  0  0
 25 23  2  0  0  0  0
 27 28  2  0  0  0  0
 28 29  1  0  0  0  0
 28 26  1  0  0  0  0
M  END
>  <minimizedAffinity>
-9.08439255

>  <CNNscore>
0.600634575

>  <CNNaffinity>
6.94367647

$$$$

 OpenBabel08282609593D

 29 31  0  0  1  0  0  0  0  0999 V2000
  101.6470  101.3040  105.0690 C   0  0  1  0  0  0  0  0  0  0  0  0
  100.3410  101.6130  104.2990 C   0  0  0  0  0  0  0  0  0  0  0  0
   99.8810  103.0670  104.4490 C   0  0  0  0  0  0  0  0  0  0  0  0
   99.6470  103.5180  105.9340 C   0  0  1  0  0  0  0  0  0  0  0  0
  100.5040  102.6140  106.8680 C   0  0  0  0  0  0  0  0  0  0  0  0
  101.8480  102.2960  106.2240 C   0  0  0  0  0  0  0  0  0  0  0  0
  101.6310   99.8130  105.4910 C   0  0  0  0  0  0  0  0  0  0  0  0
  102.0230   99.5350  106.9400 C   0  0  0  0  0  0  0  0  0  0  0  0
  102.7480   98.2150  107.2400 C   0  0  0  0  0  0  0  0  0  0  0  0
  102.8890   97.9700  108.4720 O   0  0  0  0  0  0  0  0  0  0  0  0
  103.1060   97.5270  106.2440 O   0  0  0  0  0  0  0  0  0  0  0  0
   99.8970  105.0400  106.0910 C   0  0  0  0  0  0  0  0  0  0  0  0
   99.2700  105.8200  107.0850 C   0  0  0  0  0  0  0  0  0  0  0  0
  100.7660  105.7290  105.2200 C   0  0  0  0  0  0  0  0  0  0  0  0
   99.5030  107.1940  107.1800 C   0  0  0  0  0  0  0  0  0  0  0  0
  100.9980  107.1030  105.3190 C   0  0  0  0  0  0  0  0  0  0  0  0
  100.3610  107.8430  106.3050 C   0  0  0  0  0  0  0  0  0  0  0  0
  101.4170  105.0750  104.2490 F   0  0  0  0  0  0  0  0  0  0  0  0
   98.8820  107.9010  108.1320 F   0  0  0  0  0  0  0  0  0  0  0  0
   97.8420  103.2500  106.3560 S   0  0  0  0  0  0  0  0  0  0  0  0
   97.1170  104.5040  106.2540 O   0  0  0  0  0  0  0  0  0  0  0  0
   97.7120  102.4730  107.5780 O   0  0  0  0  0  0  0  0  0  0  0  0
   97.2160  102.1990  105.0470 C   0  0  0  0  0  0  0  0  0  0  0  0
   97.2060  100.8120  105.2220 C   0  0  0  0  0  0  0  0  0  0  0  0
   96.6760  102.7750  103.8910 C   0  0  0  0  0  0  0  0  0  0  0  0
   96.6950   99.9940  104.2130 C   0  0  0  0  0  0  0  0  0  0  0  0
   96.1720  101.9510  102.8830 C   0  0  0  0  0  0  0  0  0  0  0  0
   96.1830  100.5660  103.0470 C   0  0  0  0  0  0  0  0  0  0  0  0
   95.5520   99.5510  101.8090 Cl  0  0  0  0  0  0  0  0  0  0  0  0
  1  7  1  1  0  0  0
  1  6  1  0  0  0  0
  2  3  1  0  0  0  0
  2  1  1  0  0  0  0
  3  4  1  0  0  0  0
  4 12  1  0  0  0  0
  4 20  1  1  0  0  0
  4  5  1  0  0  0  0
  6  5  1  0  0  0  0
  7  8  1  0  0  0  0
  8  9  1  0  0  0  0
  9 10  1  0  0  0  0
 11  9  2  0  0  0  0
 12 13  1  0  0  0  0
 13 15  2  0  0  0  0
 14 16  1  0  0  0  0
 14 12  2  0  0  0  0
 15 19  1  0  0  0  0
 16 17  2  0  0  0  0
 17 15  1  0  0  0  0
 18 14  1  0  0  0  0
 20 22  2  0  0  0  0
 21 20  2  0  0  0  0
 23 24  1  0  0  0  0
 23 20  1  0  0  0  0
 25 23  2  0  0  0  0
 26 24  2  0  0  0  0
 27 28  2  0  0  0  0
 27 25  1  0  0  0  0
 28 26  1  0  0  0  0
 29 28  1  0  0  0  0
M  END
>  <minimizedAffinity>
-8.62356281

>  <CNNscore>
0.592478037

>  <CNNaffinity>
6.84047174

$$$$
