
 OpenBabel08282616203D

 26 29  0  0  0  0  0  0  0  0999 V2000
  102.5590   99.7470  107.3870 N   0  0  0  0  0  0  0  0  0  0  0  0
  102.4060   98.9090  106.3100 C   0  0  0  0  0  0  0  0  0  0  0  0
  101.4490   99.4390  105.4670 C   0  0  0  0  0  0  0  0  0  0  0  0
  100.9990  100.6590  106.0690 C   0  0  0  0  0  0  0  0  0  0  0  0
  100.0520  101.6410  105.7040 C   0  0  0  0  0  0  0  0  0  0  0  0
   99.8440  102.7500  106.5330 C   0  0  0  0  0  0  0  0  0  0  0  0
  100.5690  102.8970  107.7100 C   0  0  0  0  0  0  0  0  0  0  0  0
  101.5110  101.9400  108.0960 C   0  0  0  0  0  0  0  0  0  0  0  0
  101.7080  100.8270  107.2620 C   0  0  0  0  0  0  0  0  0  0  0  0
  103.3990   99.4560  108.5370 C   0  0  0  0  0  0  0  0  0  0  0  0
  103.5430   97.9640  108.7770 C   0  0  0  0  0  0  0  0  0  0  0  0
  104.6470   97.4540  108.4270 O   0  0  0  0  0  0  0  0  0  0  0  0
  102.5120   97.3870  109.2340 O   0  0  0  0  0  0  0  0  0  0  0  0
  100.9930   98.8530  104.1670 C   0  0  0  0  0  0  0  0  0  0  0  0
   99.5490   99.1420  103.8560 C   0  0  0  0  0  0  0  0  0  0  0  0
   98.5360   98.7800  104.6190 N   0  0  0  0  0  0  0  0  0  0  0  0
   99.1110   99.9350  102.3930 S   0  0  0  0  0  0  0  0  0  0  0  0
   97.3350   99.2050  104.0700 C   0  0  0  0  0  0  0  0  0  0  0  0
   97.4530   99.8640  102.8410 C   0  0  0  0  0  0  0  0  0  0  0  0
   96.0440   99.0320  104.6140 C   0  0  0  0  0  0  0  0  0  0  0  0
   96.3220  100.3450  102.1640 C   0  0  0  0  0  0  0  0  0  0  0  0
   94.9290   99.5180  103.9320 C   0  0  0  0  0  0  0  0  0  0  0  0
   95.0580  100.1700  102.7180 C   0  0  0  0  0  0  0  0  0  0  0  0
   95.8750   98.3970  105.7830 F   0  0  0  0  0  0  0  0  0  0  0  0
   96.4370  100.9690  100.9830 F   0  0  0  0  0  0  0  0  0  0  0  0
   93.7040   99.3490  104.4500 F   0  0  0  0  0  0  0  0  0  0  0  0
  1 10  1  0  0  0  0
  2  1  1  0  0  0  0
  3  4  1  0  0  0  0
  3  2  2  0  0  0  0
  4  9  1  0  0  0  0
  5  4  2  0  0  0  0
  5  6  1  0  0  0  0
  6  7  2  0  0  0  0
  7  8  1  0  0  0  0
  9  1  1  0  0  0  0
  9  8  2  0  0  0  0
 10 11  1  0  0  0  0
 11 13  1  0  0  0  0
 12 11  2  0  0  0  0
 14  3  1  0  0  0  0
 15 14  1  0  0  0  0
 15 16  2  0  0  0  0
 17 19  1  0  0  0  0
 17 15  1  0  0  0  0
 18 20  1  0  0  0  0
 18 16  1  0  0  0  0
 19 18  2  0  0  0  0
 20 24  1  0  0  0  0
 21 23  2  0  0  0  0
 21 19  1  0  0  0  0
 22 26  1  0  0  0  0
 22 20  2  0  0  0  0
 23 22  1  0  0  0  0
 25 21  1  0  0  0  0
M  END
>  <minimizedAffinity>
-8.32601452

>  <CNNscore>
0.797813177

>  <CNNaffinity>
7.2017746

$$$$

 OpenBabel08282616203D

 26 29  0  0  0  0  0  0  0  0999 V2000
  102.3010   99.8010  106.2620 N   0  0  0  0  0  0  0  0  0  0  0  0
  101.7050   98.8240  105.5040 C   0  0  0  0  0  0  0  0  0  0  0  0
  101.1400   99.4100  104.3880 C   0  0  0  0  0  0  0  0  0  0  0  0
  101.4070  100.8160  104.4800 C   0  0  0  0  0  0  0  0  0  0  0  0
  101.0990  101.9280  103.6660 C   0  0  0  0  0  0  0  0  0  0  0  0
  101.5210  103.2070  104.0460 C   0  0  0  0  0  0  0  0  0  0  0  0
  102.2480  103.3920  105.2170 C   0  0  0  0  0  0  0  0  0  0  0  0
  102.5660  102.3100  106.0410 C   0  0  0  0  0  0  0  0  0  0  0  0
  102.1320  101.0310  105.6560 C   0  0  0  0  0  0  0  0  0  0  0  0
  102.8980   99.5730  107.5680 C   0  0  0  0  0  0  0  0  0  0  0  0
  103.2150   98.1070  107.8030 C   0  0  0  0  0  0  0  0  0  0  0  0
  102.2730   97.4110  108.2830 O   0  0  0  0  0  0  0  0  0  0  0  0
  104.4110   97.7650  107.5610 O   0  0  0  0  0  0  0  0  0  0  0  0
  100.4110   98.7020  103.2900 C   0  0  0  0  0  0  0  0  0  0  0  0
   98.9320   98.9890  103.2730 C   0  0  0  0  0  0  0  0  0  0  0  0
   98.3040   99.5950  102.2850 N   0  0  0  0  0  0  0  0  0  0  0  0
   97.9470   98.5860  104.6240 S   0  0  0  0  0  0  0  0  0  0  0  0
   96.9480   99.6970  102.5600 C   0  0  0  0  0  0  0  0  0  0  0  0
   96.5630   99.1920  103.8060 C   0  0  0  0  0  0  0  0  0  0  0  0
   95.9530  100.2550  101.7280 C   0  0  0  0  0  0  0  0  0  0  0  0
   95.2240   99.2330  104.2230 C   0  0  0  0  0  0  0  0  0  0  0  0
   94.6250  100.2860  102.1530 C   0  0  0  0  0  0  0  0  0  0  0  0
   94.2560   99.7810  103.3880 C   0  0  0  0  0  0  0  0  0  0  0  0
   96.2710  100.7630  100.5280 F   0  0  0  0  0  0  0  0  0  0  0  0
   94.8580   98.7560  105.4220 F   0  0  0  0  0  0  0  0  0  0  0  0
   93.6830  100.8190  101.3630 F   0  0  0  0  0  0  0  0  0  0  0  0
  1 10  1  0  0  0  0
  2  1  1  0  0  0  0
  3  4  1  0  0  0  0
  3  2  2  0  0  0  0
  4  9  1  0  0  0  0
  5  6  1  0  0  0  0
  5  4  2  0  0  0  0
  6  7  2  0  0  0  0
  7  8  1  0  0  0  0
  9  8  2  0  0  0  0
  9  1  1  0  0  0  0
 10 11  1  0  0  0  0
 11 12  1  0  0  0  0
 13 11  2  0  0  0  0
 14  3  1  0  0  0  0
 15 14  1  0  0  0  0
 15 17  1  0  0  0  0
 16 18  1  0  0  0  0
 16 15  2  0  0  0  0
 18 19  1  0  0  0  0
 19 21  2  0  0  0  0
 19 17  1  0  0  0  0
 20 22  1  0  0  0  0
 20 18  2  0  0  0  0
 21 25  1  0  0  0  0
 22 23  2  0  0  0  0
 23 21  1  0  0  0  0
 24 20  1  0  0  0  0
 26 22  1  0  0  0  0
M  END
>  <minimizedAffinity>
-8.45403481

>  <CNNscore>
0.708595097

>  <CNNaffinity>
6.90047598

$$$$

 OpenBabel08282616203D

 26 29  0  0  0  0  0  0  0  0999 V2000
  101.5410  100.4090  105.9120 N   0  0  0  0  0  0  0  0  0  0  0  0
  101.3730  100.0020  104.6120 C   0  0  0  0  0  0  0  0  0  0  0  0
  100.1580  100.4720  104.1530 C   0  0  0  0  0  0  0  0  0  0  0  0
   99.5610  101.1980  105.2350 C   0  0  0  0  0  0  0  0  0  0  0  0
   98.3460  101.9010  105.3930 C   0  0  0  0  0  0  0  0  0  0  0  0
   98.0540  102.5230  106.6120 C   0  0  0  0  0  0  0  0  0  0  0  0
   98.9550  102.4600  107.6700 C   0  0  0  0  0  0  0  0  0  0  0  0
  100.1630  101.7700  107.5420 C   0  0  0  0  0  0  0  0  0  0  0  0
  100.4440  101.1430  106.3180 C   0  0  0  0  0  0  0  0  0  0  0  0
  102.6530  100.0060  106.7580 C   0  0  0  0  0  0  0  0  0  0  0  0
  102.5990   98.5290  107.1070 C   0  0  0  0  0  0  0  0  0  0  0  0
  102.8390   97.7290  106.1550 O   0  0  0  0  0  0  0  0  0  0  0  0
  102.2470   98.2650  108.2950 O   0  0  0  0  0  0  0  0  0  0  0  0
   99.5930  100.2730  102.7810 C   0  0  0  0  0  0  0  0  0  0  0  0
   98.0960  100.4240  102.7240 C   0  0  0  0  0  0  0  0  0  0  0  0
   97.4730  101.4920  102.2680 N   0  0  0  0  0  0  0  0  0  0  0  0
   97.0680   99.1880  103.3370 S   0  0  0  0  0  0  0  0  0  0  0  0
   96.0980  101.3200  102.3320 C   0  0  0  0  0  0  0  0  0  0  0  0
   95.6850  100.1060  102.8920 C   0  0  0  0  0  0  0  0  0  0  0  0
   95.1070  102.2310  101.9060 C   0  0  0  0  0  0  0  0  0  0  0  0
   94.3240   99.7950  103.0270 C   0  0  0  0  0  0  0  0  0  0  0  0
   93.7570  101.9080  102.0440 C   0  0  0  0  0  0  0  0  0  0  0  0
   93.3610  100.7030  102.5980 C   0  0  0  0  0  0  0  0  0  0  0  0
   95.4490  103.4130  101.3730 F   0  0  0  0  0  0  0  0  0  0  0  0
   93.9300   98.6350  103.5720 F   0  0  0  0  0  0  0  0  0  0  0  0
   92.8180  102.7760  101.6410 F   0  0  0  0  0  0  0  0  0  0  0  0
  1  9  1  0  0  0  0
  1 10  1  0  0  0  0
  2  1  1  0  0  0  0
  3  2  2  0  0  0  0
  3  4  1  0  0  0  0
  4  5  2  0  0  0  0
  4  9  1  0  0  0  0
  5  6  1  0  0  0  0
  6  7  2  0  0  0  0
  8  7  1  0  0  0  0
  9  8  2  0  0  0  0
 10 11  1  0  0  0  0
 11 13  1  0  0  0  0
 12 11  2  0  0  0  0
 14  3  1  0  0  0  0
 15 14  1  0  0  0  0
 15 17  1  0  0  0  0
 16 18  1  0  0  0  0
 16 15  2  0  0  0  0
 18 19  1  0  0  0  0
 19 21  2  0  0  0  0
 19 17  1  0  0  0  0
 20 22  1  0  0  0  0
 20 18  2  0  0  0  0
 21 25  1  0  0  0  0
 22 23  2  0  0  0  0
 23 21  1  0  0  0  0
 24 20  1  0  0  0  0
 26 22  1  0  0  0  0
M  END
>  <minimizedAffinity>
-7.88719893

>  <CNNscore>
0.565214753

>  <CNNaffinity>
6.64237833

$$$$

 OpenBabel08282616203D

 26 29  0  0  0  0  0  0  0  0999 V2000
  102.0950   99.4930  106.8510 N   0  0  0  0  0  0  0  0  0  0  0  0
  101.5380  100.4080  107.7100 C   0  0  0  0  0  0  0  0  0  0  0  0
  100.4130  100.9470  107.1180 C   0  0  0  0  0  0  0  0  0  0  0  0
  100.2870  100.3260  105.8310 C   0  0  0  0  0  0  0  0  0  0  0  0
   99.3630  100.4480  104.7700 C   0  0  0  0  0  0  0  0  0  0  0  0
   99.5230   99.6730  103.6150 C   0  0  0  0  0  0  0  0  0  0  0  0
  100.5810   98.7780  103.5070 C   0  0  0  0  0  0  0  0  0  0  0  0
  101.5100   98.6380  104.5410 C   0  0  0  0  0  0  0  0  0  0  0  0
  101.3470   99.4250  105.6920 C   0  0  0  0  0  0  0  0  0  0  0  0
  103.3550   98.8080  107.0900 C   0  0  0  0  0  0  0  0  0  0  0  0
  103.5640   98.4900  108.5590 C   0  0  0  0  0  0  0  0  0  0  0  0
  103.8090   97.2780  108.8310 O   0  0  0  0  0  0  0  0  0  0  0  0
  103.3950   99.4630  109.3540 O   0  0  0  0  0  0  0  0  0  0  0  0
   99.4980  101.9660  107.7200 C   0  0  0  0  0  0  0  0  0  0  0  0
   99.7410  103.3620  107.2110 C   0  0  0  0  0  0  0  0  0  0  0  0
   99.2100  104.4480  107.7360 N   0  0  0  0  0  0  0  0  0  0  0  0
  100.7120  103.6280  105.8160 S   0  0  0  0  0  0  0  0  0  0  0  0
   99.6360  105.5790  107.0550 C   0  0  0  0  0  0  0  0  0  0  0  0
  100.4740  105.3240  105.9640 C   0  0  0  0  0  0  0  0  0  0  0  0
   99.3060  106.9200  107.3450 C   0  0  0  0  0  0  0  0  0  0  0  0
  100.9790  106.3700  105.1770 C   0  0  0  0  0  0  0  0  0  0  0  0
   99.8170  107.9500  106.5560 C   0  0  0  0  0  0  0  0  0  0  0  0
  100.6470  107.6860  105.4810 C   0  0  0  0  0  0  0  0  0  0  0  0
   98.4970  107.2180  108.3730 F   0  0  0  0  0  0  0  0  0  0  0  0
  101.7760  106.1230  104.1270 F   0  0  0  0  0  0  0  0  0  0  0  0
   99.4990  109.2240  106.8320 F   0  0  0  0  0  0  0  0  0  0  0  0
  1 10  1  0  0  0  0
  1  2  1  0  0  0  0
  3  2  2  0  0  0  0
  3 14  1  0  0  0  0
  4  3  1  0  0  0  0
  5  4  2  0  0  0  0
  6  5  1  0  0  0  0
  7  6  2  0  0  0  0
  7  8  1  0  0  0  0
  8  9  2  0  0  0  0
  9  4  1  0  0  0  0
  9  1  1  0  0  0  0
 10 11  1  0  0  0  0
 11 12  2  0  0  0  0
 11 13  1  0  0  0  0
 15 14  1  0  0  0  0
 15 16  2  0  0  0  0
 17 19  1  0  0  0  0
 17 15  1  0  0  0  0
 18 20  1  0  0  0  0
 18 16  1  0  0  0  0
 19 18  2  0  0  0  0
 20 24  1  0  0  0  0
 21 23  2  0  0  0  0
 21 19  1  0  0  0  0
 22 26  1  0  0  0  0
 22 20  2  0  0  0  0
 23 22  1  0  0  0  0
 25 21  1  0  0  0  0
M  END
>  <minimizedAffinity>
-8.20843983

>  <CNNscore>
0.477951765

>  <CNNaffinity>
6.75870132

$$$$

 OpenBabel08282616203D

 26 29  0  0  0  0  0  0  0  0999 V2000
   95.7460  101.6750  102.8440 N   0  0  0  0  0  0  0  0  0  0  0  0
   96.9440  102.0230  103.4170 C   0  0  0  0  0  0  0  0  0  0  0  0
   97.1270  101.2660  104.5590 C   0  0  0  0  0  0  0  0  0  0  0  0
   95.9760  100.4200  104.6810 C   0  0  0  0  0  0  0  0  0  0  0  0
   95.5750   99.4400  105.6150 C   0  0  0  0  0  0  0  0  0  0  0  0
   94.3580   98.7700  105.4430 C   0  0  0  0  0  0  0  0  0  0  0  0
   93.5430   99.0560  104.3530 C   0  0  0  0  0  0  0  0  0  0  0  0
   93.9150  100.0220  103.4140 C   0  0  0  0  0  0  0  0  0  0  0  0
   95.1340  100.6940  103.6000 C   0  0  0  0  0  0  0  0  0  0  0  0
   95.1670  102.3420  101.6890 C   0  0  0  0  0  0  0  0  0  0  0  0
   94.4240  103.6080  102.0750 C   0  0  0  0  0  0  0  0  0  0  0  0
   95.1050  104.6750  102.0560 O   0  0  0  0  0  0  0  0  0  0  0  0
   93.2230  103.4410  102.4430 O   0  0  0  0  0  0  0  0  0  0  0  0
   98.3110  101.3150  105.4720 C   0  0  0  0  0  0  0  0  0  0  0  0
   98.5960  102.6930  106.0080 C   0  0  0  0  0  0  0  0  0  0  0  0
   99.0890  103.6820  105.2900 N   0  0  0  0  0  0  0  0  0  0  0  0
   98.3490  103.0530  107.6720 S   0  0  0  0  0  0  0  0  0  0  0  0
   99.2240  104.8260  106.0640 C   0  0  0  0  0  0  0  0  0  0  0  0
   98.8610  104.6720  107.4060 C   0  0  0  0  0  0  0  0  0  0  0  0
   99.6870  106.0900  105.6370 C   0  0  0  0  0  0  0  0  0  0  0  0
   98.9500  105.7410  108.3090 C   0  0  0  0  0  0  0  0  0  0  0  0
   99.7670  107.1450  106.5450 C   0  0  0  0  0  0  0  0  0  0  0  0
   99.4040  106.9810  107.8710 C   0  0  0  0  0  0  0  0  0  0  0  0
  100.0580  106.2870  104.3630 F   0  0  0  0  0  0  0  0  0  0  0  0
   98.6110  105.5890  109.5970 F   0  0  0  0  0  0  0  0  0  0  0  0
  100.2110  108.3440  106.1380 F   0  0  0  0  0  0  0  0  0  0  0  0
  1  2  1  0  0  0  0
  1  9  1  0  0  0  0
  2  3  2  0  0  0  0
  3  4  1  0  0  0  0
  3 14  1  0  0  0  0
  4  5  1  0  0  0  0
  6  5  2  0  0  0  0
  7  6  1  0  0  0  0
  8  9  1  0  0  0  0
  8  7  2  0  0  0  0
  9  4  2  0  0  0  0
 10 11  1  0  0  0  0
 10  1  1  0  0  0  0
 11 13  1  0  0  0  0
 12 11  2  0  0  0  0
 14 15  1  0  0  0  0
 15 17  1  0  0  0  0
 16 15  2  0  0  0  0
 16 18  1  0  0  0  0
 18 19  1  0  0  0  0
 19 17  1  0  0  0  0
 19 21  2  0  0  0  0
 20 18  2  0  0  0  0
 20 22  1  0  0  0  0
 21 25  1  0  0  0  0
 22 23  2  0  0  0  0
 23 21  1  0  0  0  0
 24 20  1  0  0  0  0
 26 22  1  0  0  0  0
M  END
>  <minimizedAffinity>
-8.0610323

>  <CNNscore>
0.466929346

>  <CNNaffinity>
6.33263922

$$$$

 OpenBabel08282616203D

 26 29  0  0  0  0  0  0  0  0999 V2000
   97.3520  100.6620  102.5340 N   0  0  0  0  0  0  0  0  0  0  0  0
   96.5790  101.2170  103.5240 C   0  0  0  0  0  0  0  0  0  0  0  0
   97.2650  101.1380  104.7210 C   0  0  0  0  0  0  0  0  0  0  0  0
   98.5160  100.4980  104.4370 C   0  0  0  0  0  0  0  0  0  0  0  0
   99.6320  100.1350  105.2230 C   0  0  0  0  0  0  0  0  0  0  0  0
  100.7320   99.5090  104.6240 C   0  0  0  0  0  0  0  0  0  0  0  0
  100.7360   99.2460  103.2590 C   0  0  0  0  0  0  0  0  0  0  0  0
   99.6450   99.5920  102.4580 C   0  0  0  0  0  0  0  0  0  0  0  0
   98.5440  100.2140  103.0690 C   0  0  0  0  0  0  0  0  0  0  0  0
   96.9090  100.4670  101.1640 C   0  0  0  0  0  0  0  0  0  0  0  0
   95.3960  100.4000  101.0560 C   0  0  0  0  0  0  0  0  0  0  0  0
   94.8050  101.5100  100.9120 O   0  0  0  0  0  0  0  0  0  0  0  0
   94.8930   99.2460  101.1960 O   0  0  0  0  0  0  0  0  0  0  0  0
   96.7920  101.6440  106.0470 C   0  0  0  0  0  0  0  0  0  0  0  0
   97.4360  102.9420  106.4560 C   0  0  0  0  0  0  0  0  0  0  0  0
   97.9210  103.8300  105.6110 N   0  0  0  0  0  0  0  0  0  0  0  0
   97.6460  103.3290  108.1190 S   0  0  0  0  0  0  0  0  0  0  0  0
   98.4340  104.9240  106.2940 C   0  0  0  0  0  0  0  0  0  0  0  0
   98.3670  104.8280  107.6880 C   0  0  0  0  0  0  0  0  0  0  0  0
   99.0060  106.0840  105.7300 C   0  0  0  0  0  0  0  0  0  0  0  0
   98.8530  105.8560  108.5100 C   0  0  0  0  0  0  0  0  0  0  0  0
   99.4820  107.1000  106.5580 C   0  0  0  0  0  0  0  0  0  0  0  0
   99.4100  106.9950  107.9370 C   0  0  0  0  0  0  0  0  0  0  0  0
   99.1040  106.2200  104.3990 F   0  0  0  0  0  0  0  0  0  0  0  0
   98.7960  105.7580  109.8460 F   0  0  0  0  0  0  0  0  0  0  0  0
  100.0290  108.2000  106.0200 F   0  0  0  0  0  0  0  0  0  0  0  0
  1  9  1  0  0  0  0
  1  2  1  0  0  0  0
  2  3  2  0  0  0  0
  3 14  1  0  0  0  0
  4  3  1  0  0  0  0
  4  5  1  0  0  0  0
  6  5  2  0  0  0  0
  7  6  1  0  0  0  0
  8  9  1  0  0  0  0
  8  7  2  0  0  0  0
  9  4  2  0  0  0  0
 10  1  1  0  0  0  0
 11 10  1  0  0  0  0
 11 13  1  0  0  0  0
 12 11  2  0  0  0  0
 14 15  1  0  0  0  0
 15 17  1  0  0  0  0
 16 18  1  0  0  0  0
 16 15  2  0  0  0  0
 18 19  1  0  0  0  0
 19 17  1  0  0  0  0
 19 21  2  0  0  0  0
 20 18  2  0  0  0  0
 20 22  1  0  0  0  0
 21 25  1  0  0  0  0
 22 23  2  0  0  0  0
 23 21  1  0  0  0  0
 24 20  1  0  0  0  0
 26 22  1  0  0  0  0
M  END
>  <minimizedAffinity>
-8.15463638

>  <CNNscore>
0.406039506

>  <CNNaffinity>
6.42368507

$$$$

 OpenBabel08282616203D

 26 29  0  0  0  0  0  0  0  0999 V2000
  100.4080   99.6720  105.4600 N   0  0  0  0  0  0  0  0  0  0  0  0
  100.1660  100.7960  106.2100 C   0  0  0  0  0  0  0  0  0  0  0  0
   98.8720  101.2170  105.9760 C   0  0  0  0  0  0  0  0  0  0  0  0
   98.3040  100.3000  105.0320 C   0  0  0  0  0  0  0  0  0  0  0  0
   97.0410  100.1910  104.4080 C   0  0  0  0  0  0  0  0  0  0  0  0
   96.7960   99.1450  103.5120 C   0  0  0  0  0  0  0  0  0  0  0  0
   97.7840   98.2060  103.2350 C   0  0  0  0  0  0  0  0  0  0  0  0
   99.0410   98.2900  103.8370 C   0  0  0  0  0  0  0  0  0  0  0  0
   99.2810   99.3470  104.7300 C   0  0  0  0  0  0  0  0  0  0  0  0
  101.7010   99.0150  105.3640 C   0  0  0  0  0  0  0  0  0  0  0  0
  102.3570   98.8420  106.7220 C   0  0  0  0  0  0  0  0  0  0  0  0
  102.0160   97.8090  107.3700 O   0  0  0  0  0  0  0  0  0  0  0  0
  103.1150   99.7900  107.0820 O   0  0  0  0  0  0  0  0  0  0  0  0
   98.1960  102.3940  106.6070 C   0  0  0  0  0  0  0  0  0  0  0  0
   98.9070  103.6970  106.3550 C   0  0  0  0  0  0  0  0  0  0  0  0
   98.6470  104.8220  106.9920 N   0  0  0  0  0  0  0  0  0  0  0  0
  100.1020  103.8180  105.1240 S   0  0  0  0  0  0  0  0  0  0  0  0
   99.4780  105.8390  106.5460 C   0  0  0  0  0  0  0  0  0  0  0  0
  100.3520  105.4720  105.5170 C   0  0  0  0  0  0  0  0  0  0  0  0
   99.5160  107.1700  107.0130 C   0  0  0  0  0  0  0  0  0  0  0  0
  101.2480  106.3980  104.9620 C   0  0  0  0  0  0  0  0  0  0  0  0
  100.4130  108.0800  106.4540 C   0  0  0  0  0  0  0  0  0  0  0  0
  101.2750  107.7050  105.4370 C   0  0  0  0  0  0  0  0  0  0  0  0
   98.6910  107.5760  107.9890 F   0  0  0  0  0  0  0  0  0  0  0  0
  102.0790  106.0470  103.9700 F   0  0  0  0  0  0  0  0  0  0  0  0
  100.4450  109.3450  106.8970 F   0  0  0  0  0  0  0  0  0  0  0  0
  1  2  1  0  0  0  0
  3  2  2  0  0  0  0
  3 14  1  0  0  0  0
  4  3  1  0  0  0  0
  5  4  2  0  0  0  0
  6  5  1  0  0  0  0
  7  6  2  0  0  0  0
  7  8  1  0  0  0  0
  8  9  2  0  0  0  0
  9  4  1  0  0  0  0
  9  1  1  0  0  0  0
 10  1  1  0  0  0  0
 10 11  1  0  0  0  0
 11 13  2  0  0  0  0
 11 12  1  0  0  0  0
 15 14  1  0  0  0  0
 15 16  2  0  0  0  0
 17 19  1  0  0  0  0
 17 15  1  0  0  0  0
 18 16  1  0  0  0  0
 18 20  1  0  0  0  0
 19 18  2  0  0  0  0
 20 24  1  0  0  0  0
 21 23  2  0  0  0  0
 21 19  1  0  0  0  0
 22 26  1  0  0  0  0
 22 20  2  0  0  0  0
 23 22  1  0  0  0  0
 25 21  1  0  0  0  0
M  END
>  <minimizedAffinity>
-7.93155766

>  <CNNscore>
0.403235078

>  <CNNaffinity>
6.67270327

$$$$

 OpenBabel08282616203D

 26 29  0  0  0  0  0  0  0  0999 V2000
   97.2100  100.3180  103.3650 N   0  0  0  0  0  0  0  0  0  0  0  0
   97.2160  100.5910  104.7110 C   0  0  0  0  0  0  0  0  0  0  0  0
   96.2300  101.5200  104.9800 C   0  0  0  0  0  0  0  0  0  0  0  0
   95.5980  101.8250  103.7300 C   0  0  0  0  0  0  0  0  0  0  0  0
   94.5430  102.6820  103.3480 C   0  0  0  0  0  0  0  0  0  0  0  0
   94.1510  102.7500  102.0060 C   0  0  0  0  0  0  0  0  0  0  0  0
   94.7890  101.9730  101.0450 C   0  0  0  0  0  0  0  0  0  0  0  0
   95.8360  101.1170  101.3950 C   0  0  0  0  0  0  0  0  0  0  0  0
   96.2270  101.0620  102.7420 C   0  0  0  0  0  0  0  0  0  0  0  0
   98.1850   99.4710  102.6980 C   0  0  0  0  0  0  0  0  0  0  0  0
   98.4840   98.2100  103.4900 C   0  0  0  0  0  0  0  0  0  0  0  0
   99.3360   98.3330  104.4190 O   0  0  0  0  0  0  0  0  0  0  0  0
   97.9010   97.1620  103.0820 O   0  0  0  0  0  0  0  0  0  0  0  0
   95.8830  102.0770  106.3250 C   0  0  0  0  0  0  0  0  0  0  0  0
   96.7510  103.2380  106.7320 C   0  0  0  0  0  0  0  0  0  0  0  0
   97.1130  104.2150  105.9240 N   0  0  0  0  0  0  0  0  0  0  0  0
   97.4040  103.3280  108.3210 S   0  0  0  0  0  0  0  0  0  0  0  0
   97.8980  105.1400  106.5980 C   0  0  0  0  0  0  0  0  0  0  0  0
   98.1630  104.8200  107.9340 C   0  0  0  0  0  0  0  0  0  0  0  0
   98.4430  106.3320  106.0750 C   0  0  0  0  0  0  0  0  0  0  0  0
   98.9480  105.6600  108.7390 C   0  0  0  0  0  0  0  0  0  0  0  0
   99.2200  107.1590  106.8870 C   0  0  0  0  0  0  0  0  0  0  0  0
   99.4740  106.8330  108.2080 C   0  0  0  0  0  0  0  0  0  0  0  0
   98.2280  106.6790  104.7980 F   0  0  0  0  0  0  0  0  0  0  0  0
   99.2090  105.3470  110.0160 F   0  0  0  0  0  0  0  0  0  0  0  0
   99.7400  108.2890  106.3870 F   0  0  0  0  0  0  0  0  0  0  0  0
  1  2  1  0  0  0  0
  2  3  2  0  0  0  0
  3 14  1  0  0  0  0
  4  3  1  0  0  0  0
  5  4  1  0  0  0  0
  6  5  2  0  0  0  0
  7  8  2  0  0  0  0
  7  6  1  0  0  0  0
  8  9  1  0  0  0  0
  9  1  1  0  0  0  0
  9  4  2  0  0  0  0
 10  1  1  0  0  0  0
 10 11  1  0  0  0  0
 11 12  1  0  0  0  0
 13 11  2  0  0  0  0
 14 15  1  0  0  0  0
 15 17  1  0  0  0  0
 16 18  1  0  0  0  0
 16 15  2  0  0  0  0
 18 19  1  0  0  0  0
 19 17  1  0  0  0  0
 19 21  2  0  0  0  0
 20 18  2  0  0  0  0
 20 22  1  0  0  0  0
 21 25  1  0  0  0  0
 22 23  2  0  0  0  0
 23 21  1  0  0  0  0
 24 20  1  0  0  0  0
 26 22  1  0  0  0  0
M  END
>  <minimizedAffinity>
-8.05431843

>  <CNNscore>
0.391542345

>  <CNNaffinity>
6.24027014

$$$$

 OpenBabel08282616203D

 26 29  0  0  0  0  0  0  0  0999 V2000
  102.8810   99.4130  107.4580 N   0  0  0  0  0  0  0  0  0  0  0  0
  102.8150  100.5760  108.1840 C   0  0  0  0  0  0  0  0  0  0  0  0
  101.9910  101.4660  107.5240 C   0  0  0  0  0  0  0  0  0  0  0  0
  101.5400  100.8060  106.3340 C   0  0  0  0  0  0  0  0  0  0  0  0
  100.6930  101.1780  105.2660 C   0  0  0  0  0  0  0  0  0  0  0  0
  100.4420  100.2740  104.2280 C   0  0  0  0  0  0  0  0  0  0  0  0
  101.0140   99.0060  104.2430 C   0  0  0  0  0  0  0  0  0  0  0  0
  101.8550   98.6120  105.2860 C   0  0  0  0  0  0  0  0  0  0  0  0
  102.1080   99.5280  106.3190 C   0  0  0  0  0  0  0  0  0  0  0  0
  103.7440   98.2900  107.7870 C   0  0  0  0  0  0  0  0  0  0  0  0
  103.5200   97.7940  109.2040 C   0  0  0  0  0  0  0  0  0  0  0  0
  102.4460   97.1520  109.3990 O   0  0  0  0  0  0  0  0  0  0  0  0
  104.4000   98.1420  110.0470 O   0  0  0  0  0  0  0  0  0  0  0  0
  101.6310  102.8450  107.9810 C   0  0  0  0  0  0  0  0  0  0  0  0
  100.2420  103.2640  107.5790 C   0  0  0  0  0  0  0  0  0  0  0  0
   99.1400  102.8520  108.1730 N   0  0  0  0  0  0  0  0  0  0  0  0
   99.9960  104.2940  106.2230 S   0  0  0  0  0  0  0  0  0  0  0  0
   98.0230  103.4260  107.5820 C   0  0  0  0  0  0  0  0  0  0  0  0
   98.2990  104.2550  106.4900 C   0  0  0  0  0  0  0  0  0  0  0  0
   96.6760  103.2490  107.9640 C   0  0  0  0  0  0  0  0  0  0  0  0
   97.2690  104.9000  105.7900 C   0  0  0  0  0  0  0  0  0  0  0  0
   95.6610  103.8990  107.2610 C   0  0  0  0  0  0  0  0  0  0  0  0
   95.9460  104.7190  106.1830 C   0  0  0  0  0  0  0  0  0  0  0  0
   96.3560  102.4550  108.9970 F   0  0  0  0  0  0  0  0  0  0  0  0
   97.5350  105.6880  104.7380 F   0  0  0  0  0  0  0  0  0  0  0  0
   94.3810  103.7270  107.6230 F   0  0  0  0  0  0  0  0  0  0  0  0
  1 10  1  0  0  0  0
  1  2  1  0  0  0  0
  3 14  1  0  0  0  0
  3  2  2  0  0  0  0
  4  3  1  0  0  0  0
  5  4  2  0  0  0  0
  6  7  2  0  0  0  0
  6  5  1  0  0  0  0
  7  8  1  0  0  0  0
  8  9  2  0  0  0  0
  9  4  1  0  0  0  0
  9  1  1  0  0  0  0
 10 11  1  0  0  0  0
 11 12  2  0  0  0  0
 11 13  1  0  0  0  0
 15 14  1  0  0  0  0
 15 16  2  0  0  0  0
 17 19  1  0  0  0  0
 17 15  1  0  0  0  0
 18 20  1  0  0  0  0
 18 16  1  0  0  0  0
 19 18  2  0  0  0  0
 20 24  1  0  0  0  0
 21 23  2  0  0  0  0
 21 19  1  0  0  0  0
 22 26  1  0  0  0  0
 22 20  2  0  0  0  0
 23 22  1  0  0  0  0
 25 21  1  0  0  0  0
M  END
>  <minimizedAffinity>
-8.40269852

>  <CNNscore>
0.380163968

>  <CNNaffinity>
6.85049963

$$$$
