
 OpenBabel08282614173D

 33 37  0  0  1  0  0  0  0  0999 V2000
  100.6050  100.6100  105.8550 C   0  0  0  0  0  0  0  0  0  0  0  0
  100.0170  101.8240  106.0990 N   0  0  0  0  0  0  0  0  0  0  0  0
   99.1770  102.0260  105.0970 C   0  0  0  0  0  0  0  0  0  0  0  0
   99.2450  100.9790  104.2020 N   0  0  0  0  0  0  0  0  0  0  0  0
   98.5070  100.7840  103.0880 N   0  0  0  0  0  0  0  0  0  0  0  0
   98.8100   99.7050  102.4390 C   0  0  0  0  0  0  0  0  0  0  0  0
   99.8180   98.8170  102.7350 N   0  0  0  0  0  0  0  0  0  0  0  0
  100.5330   99.0180  103.8020 C   0  0  0  0  0  0  0  0  0  0  0  0
  101.5890   98.1690  104.0060 N   0  0  0  0  0  0  0  0  0  0  0  0
  100.2110  100.1200  104.6340 C   0  0  0  0  0  0  0  0  0  0  0  0
  101.7140   97.5770  103.1890 H   0  0  0  0  0  0  0  0  0  0  0  0
  102.4520   98.6750  104.1970 H   0  0  0  0  0  0  0  0  0  0  0  0
  101.5530   99.9560  106.8890 C   0  0  0  0  0  0  0  0  0  0  0  0
  104.3210   97.8830  107.9760 C   0  0  0  0  0  0  0  0  0  0  0  0
  104.7310   97.6800  109.3010 C   0  0  0  0  0  0  0  0  0  0  0  0
  103.2140   98.7240  107.7880 C   0  0  0  0  0  0  0  0  0  0  0  0
  104.0600   98.2770  110.3700 C   0  0  0  0  0  0  0  0  0  0  0  0
  102.5840   99.0990  106.6220 N   0  0  0  0  0  0  0  0  0  0  0  0
  102.5240   99.3350  108.8340 C   0  0  0  0  0  0  0  0  0  0  0  0
  102.9540   99.1050  110.1520 C   0  0  0  0  0  0  0  0  0  0  0  0
  101.4700  100.0950  108.2550 C   0  0  0  0  0  0  0  0  0  0  0  0
  102.8350   98.7550  105.7040 H   0  0  0  0  0  0  0  0  0  0  0  0
  104.9050   97.3530  106.8600 O   0  0  0  0  0  0  0  0  0  0  0  0
  106.1890   96.7690  107.0350 C   0  0  0  0  0  0  0  0  0  0  0  0
   98.2450  103.1950  104.8950 C   0  0  1  0  0  0  0  0  0  0  0  0
   96.7800  102.7900  105.1160 C   0  0  0  0  0  0  0  0  0  0  0  0
   98.6380  104.4150  105.7430 C   0  0  0  0  0  0  0  0  0  0  0  0
   96.4000  102.6900  106.5940 C   0  0  0  0  0  0  0  0  0  0  0  0
   98.1920  104.3310  107.2060 C   0  0  0  0  0  0  0  0  0  0  0  0
   96.7060  103.9860  107.3530 C   0  0  1  0  0  0  0  0  0  0  0  0
   95.7410  105.1420  106.9860 C   0  0  0  0  0  0  0  0  0  0  0  0
   94.7060  104.8040  106.3430 O   0  0  0  0  0  0  0  0  0  0  0  0
   96.0760  106.2920  107.3860 O   0  0  0  0  0  0  0  0  0  0  0  0
  1  2  1  0  0  0  0
  1 13  1  0  0  0  0
  3  2  2  0  0  0  0
  4 10  1  0  0  0  0
  4  3  1  0  0  0  0
  5  4  1  0  0  0  0
  6  7  1  0  0  0  0
  6  5  2  0  0  0  0
  7  8  2  0  0  0  0
  8  9  1  0  0  0  0
  8 10  1  0  0  0  0
  9 12  1  0  0  0  0
 10  1  2  0  0  0  0
 11  9  1  0  0  0  0
 13 21  2  0  0  0  0
 14 15  1  0  0  0  0
 15 17  2  0  0  0  0
 16 14  2  0  0  0  0
 16 19  1  0  0  0  0
 18 13  1  0  0  0  0
 18 16  1  0  0  0  0
 19 20  2  0  0  0  0
 20 17  1  0  0  0  0
 21 19  1  0  0  0  0
 22 18  1  0  0  0  0
 23 24  1  0  0  0  0
 23 14  1  0  0  0  0
 25  3  1  1  0  0  0
 25 26  1  0  0  0  0
 25 27  1  0  0  0  0
 26 28  1  0  0  0  0
 27 29  1  0  0  0  0
 28 30  1  0  0  0  0
 29 30  1  0  0  0  0
 30 31  1  6  0  0  0
 31 33  1  0  0  0  0
 32 31  2  0  0  0  0
M  END
>  <minimizedAffinity>
-8.06395817

>  <CNNscore>
0.504323423

>  <CNNaffinity>
7.08432388

$$$$

 OpenBabel08282614173D

 33 37  0  0  1  0  0  0  0  0999 V2000
   98.1810  102.3210  104.0750 C   0  0  0  0  0  0  0  0  0  0  0  0
   96.9810  102.3030  103.4120 N   0  0  0  0  0  0  0  0  0  0  0  0
   97.0960  101.3670  102.4850 C   0  0  0  0  0  0  0  0  0  0  0  0
   98.3580  100.8120  102.5220 N   0  0  0  0  0  0  0  0  0  0  0  0
   98.8440   99.7930  101.7820 N   0  0  0  0  0  0  0  0  0  0  0  0
  100.0800   99.5010  102.0370 C   0  0  0  0  0  0  0  0  0  0  0  0
  100.9220  100.1540  102.9080 N   0  0  0  0  0  0  0  0  0  0  0  0
  100.4500  101.1430  103.6070 C   0  0  0  0  0  0  0  0  0  0  0  0
  101.3450  101.8290  104.3860 N   0  0  0  0  0  0  0  0  0  0  0  0
   99.0780  101.4740  103.4720 C   0  0  0  0  0  0  0  0  0  0  0  0
  102.2890  101.5120  104.1820 H   0  0  0  0  0  0  0  0  0  0  0  0
  101.2820  102.8340  104.2410 H   0  0  0  0  0  0  0  0  0  0  0  0
   98.3890  103.1960  105.3340 C   0  0  0  0  0  0  0  0  0  0  0  0
   99.1060  106.2550  107.1430 C   0  0  0  0  0  0  0  0  0  0  0  0
   99.1410  106.4020  108.5370 C   0  0  0  0  0  0  0  0  0  0  0  0
   98.8130  104.9710  106.6590 C   0  0  0  0  0  0  0  0  0  0  0  0
   98.9070  105.3210  109.3890 C   0  0  0  0  0  0  0  0  0  0  0  0
   98.7200  104.5220  105.3610 N   0  0  0  0  0  0  0  0  0  0  0  0
   98.5750  103.8720  107.4840 C   0  0  0  0  0  0  0  0  0  0  0  0
   98.6250  104.0500  108.8770 C   0  0  0  0  0  0  0  0  0  0  0  0
   98.3250  102.7570  106.6370 C   0  0  0  0  0  0  0  0  0  0  0  0
   98.9070  105.0940  104.5470 H   0  0  0  0  0  0  0  0  0  0  0  0
   99.3160  107.2420  106.2220 O   0  0  0  0  0  0  0  0  0  0  0  0
  100.5420  107.9530  106.3250 C   0  0  0  0  0  0  0  0  0  0  0  0
   96.0480  100.9100  101.5010 C   0  0  1  0  0  0  0  0  0  0  0  0
   95.3470   99.6300  101.9810 C   0  0  0  0  0  0  0  0  0  0  0  0
   95.0420  102.0180  101.1540 C   0  0  0  0  0  0  0  0  0  0  0  0
   94.2870   99.8890  103.0520 C   0  0  0  0  0  0  0  0  0  0  0  0
   93.9460  102.2230  102.2040 C   0  0  0  0  0  0  0  0  0  0  0  0
   93.2460  100.9160  102.5900 C   0  0  1  0  0  0  0  0  0  0  0  0
   92.2890  100.3570  101.5070 C   0  0  0  0  0  0  0  0  0  0  0  0
   92.6740  100.5040  100.3110 O   0  0  0  0  0  0  0  0  0  0  0  0
   91.2400   99.7960  101.9310 O   0  0  0  0  0  0  0  0  0  0  0  0
  1 13  1  0  0  0  0
  2  1  1  0  0  0  0
  3  4  1  0  0  0  0
  3  2  2  0  0  0  0
  4 10  1  0  0  0  0
  5  6  2  0  0  0  0
  5  4  1  0  0  0  0
  6  7  1  0  0  0  0
  7  8  2  0  0  0  0
  8  9  1  0  0  0  0
 10  8  1  0  0  0  0
 10  1  2  0  0  0  0
 11  9  1  0  0  0  0
 12  9  1  0  0  0  0
 13 18  1  0  0  0  0
 13 21  2  0  0  0  0
 14 15  1  0  0  0  0
 15 17  2  0  0  0  0
 16 14  2  0  0  0  0
 16 19  1  0  0  0  0
 18 16  1  0  0  0  0
 19 20  2  0  0  0  0
 20 17  1  0  0  0  0
 21 19  1  0  0  0  0
 22 18  1  0  0  0  0
 23 24  1  0  0  0  0
 23 14  1  0  0  0  0
 25 26  1  0  0  0  0
 25  3  1  1  0  0  0
 26 28  1  0  0  0  0
 27 25  1  0  0  0  0
 27 29  1  0  0  0  0
 29 30  1  0  0  0  0
 30 31  1  6  0  0  0
 30 28  1  0  0  0  0
 31 33  1  0  0  0  0
 32 31  2  0  0  0  0
M  END
>  <minimizedAffinity>
-8.96325779

>  <CNNscore>
0.357996672

>  <CNNaffinity>
6.64050293

$$$$

 OpenBabel08282614173D

 33 37  0  0  1  0  0  0  0  0999 V2000
   99.8630  102.1480  105.1910 C   0  0  0  0  0  0  0  0  0  0  0  0
   98.7950  101.6270  104.5080 N   0  0  0  0  0  0  0  0  0  0  0  0
   98.9580  100.3150  104.5310 C   0  0  0  0  0  0  0  0  0  0  0  0
  100.1280   99.9920  105.1870 N   0  0  0  0  0  0  0  0  0  0  0  0
  100.6150   98.7650  105.4710 N   0  0  0  0  0  0  0  0  0  0  0  0
  101.7510   98.7820  106.0910 C   0  0  0  0  0  0  0  0  0  0  0  0
  102.5040   99.8880  106.4110 N   0  0  0  0  0  0  0  0  0  0  0  0
  102.0350  101.0650  106.1230 C   0  0  0  0  0  0  0  0  0  0  0  0
  102.8580  102.1340  106.3660 N   0  0  0  0  0  0  0  0  0  0  0  0
  100.7490  101.1550  105.5320 C   0  0  0  0  0  0  0  0  0  0  0  0
  103.7820  101.8000  106.6260 H   0  0  0  0  0  0  0  0  0  0  0  0
  102.9310  102.7480  105.5580 H   0  0  0  0  0  0  0  0  0  0  0  0
   99.9550  103.6610  105.5040 C   0  0  0  0  0  0  0  0  0  0  0  0
  101.4470  106.9630  105.4130 C   0  0  0  0  0  0  0  0  0  0  0  0
  100.9240  108.1230  106.0010 C   0  0  0  0  0  0  0  0  0  0  0  0
  100.7010  105.7880  105.5820 C   0  0  0  0  0  0  0  0  0  0  0  0
   99.7310  108.0970  106.7260 C   0  0  0  0  0  0  0  0  0  0  0  0
  100.9590  104.5110  105.1360 N   0  0  0  0  0  0  0  0  0  0  0  0
   99.5060  105.7300  106.2990 C   0  0  0  0  0  0  0  0  0  0  0  0
   99.0120  106.9080  106.8850 C   0  0  0  0  0  0  0  0  0  0  0  0
   99.0550  104.3810  106.2560 C   0  0  0  0  0  0  0  0  0  0  0  0
  101.7970  104.2420  104.6350 H   0  0  0  0  0  0  0  0  0  0  0  0
  102.6000  106.8770  104.6830 O   0  0  0  0  0  0  0  0  0  0  0  0
  102.6660  105.8270  103.7280 C   0  0  0  0  0  0  0  0  0  0  0  0
   98.0440   99.2610  103.9580 C   0  0  1  0  0  0  0  0  0  0  0  0
   96.7140   99.1930  104.7240 C   0  0  0  0  0  0  0  0  0  0  0  0
   97.8270   99.4290  102.4460 C   0  0  0  0  0  0  0  0  0  0  0  0
   95.7390  100.3060  104.3380 C   0  0  0  0  0  0  0  0  0  0  0  0
   96.7980  100.5020  102.0750 C   0  0  0  0  0  0  0  0  0  0  0  0
   95.4740  100.3370  102.8290 C   0  0  1  0  0  0  0  0  0  0  0  0
   94.6050   99.1480  102.3460 C   0  0  0  0  0  0  0  0  0  0  0  0
   93.6980   98.7760  103.1440 O   0  0  0  0  0  0  0  0  0  0  0  0
   94.8780   98.6920  101.2000 O   0  0  0  0  0  0  0  0  0  0  0  0
  1 13  1  0  0  0  0
  1 10  2  0  0  0  0
  2  3  2  0  0  0  0
  2  1  1  0  0  0  0
  3  4  1  0  0  0  0
  4  5  1  0  0  0  0
  4 10  1  0  0  0  0
  5  6  2  0  0  0  0
  6  7  1  0  0  0  0
  8  9  1  0  0  0  0
  8  7  2  0  0  0  0
  9 11  1  0  0  0  0
 10  8  1  0  0  0  0
 12  9  1  0  0  0  0
 13 21  2  0  0  0  0
 14 16  2  0  0  0  0
 14 15  1  0  0  0  0
 15 17  2  0  0  0  0
 16 19  1  0  0  0  0
 17 20  1  0  0  0  0
 18 13  1  0  0  0  0
 18 16  1  0  0  0  0
 19 20  2  0  0  0  0
 21 19  1  0  0  0  0
 22 18  1  0  0  0  0
 23 14  1  0  0  0  0
 24 23  1  0  0  0  0
 25  3  1  1  0  0  0
 25 26  1  0  0  0  0
 27 25  1  0  0  0  0
 28 26  1  0  0  0  0
 29 27  1  0  0  0  0
 29 30  1  0  0  0  0
 30 31  1  6  0  0  0
 30 28  1  0  0  0  0
 31 32  1  0  0  0  0
 33 31  2  0  0  0  0
M  END
>  <minimizedAffinity>
-8.18160057

>  <CNNscore>
0.265255511

>  <CNNaffinity>
6.59914398

$$$$

 OpenBabel08282614173D

 33 37  0  0  1  0  0  0  0  0999 V2000
   99.6410  101.0490  105.9480 C   0  0  0  0  0  0  0  0  0  0  0  0
  100.7480  100.8870  106.7410 N   0  0  0  0  0  0  0  0  0  0  0  0
  101.5020   99.9910  106.1280 C   0  0  0  0  0  0  0  0  0  0  0  0
  100.8810   99.5530  104.9770 N   0  0  0  0  0  0  0  0  0  0  0  0
  101.3520   98.6910  104.0510 N   0  0  0  0  0  0  0  0  0  0  0  0
  100.5270   98.4630  103.0780 C   0  0  0  0  0  0  0  0  0  0  0  0
   99.2460   98.9480  102.9480 N   0  0  0  0  0  0  0  0  0  0  0  0
   98.7960   99.7670  103.8500 C   0  0  0  0  0  0  0  0  0  0  0  0
   97.4840  100.1480  103.7390 N   0  0  0  0  0  0  0  0  0  0  0  0
   99.6620  100.1570  104.9040 C   0  0  0  0  0  0  0  0  0  0  0  0
   97.0330   99.6040  103.0080 H   0  0  0  0  0  0  0  0  0  0  0  0
   96.9780  100.0310  104.6140 H   0  0  0  0  0  0  0  0  0  0  0  0
   98.5800  102.1310  106.2620 C   0  0  0  0  0  0  0  0  0  0  0  0
   97.4070  105.4720  107.0390 C   0  0  0  0  0  0  0  0  0  0  0  0
   96.0730  105.8550  107.2320 C   0  0  0  0  0  0  0  0  0  0  0  0
   97.6320  104.1170  106.7530 C   0  0  0  0  0  0  0  0  0  0  0  0
   95.0310  104.9290  107.1550 C   0  0  0  0  0  0  0  0  0  0  0  0
   98.8150  103.4510  106.5280 N   0  0  0  0  0  0  0  0  0  0  0  0
   96.6130  103.1680  106.6690 C   0  0  0  0  0  0  0  0  0  0  0  0
   95.2850  103.5820  106.8760 C   0  0  0  0  0  0  0  0  0  0  0  0
   97.2250  101.9190  106.3750 C   0  0  0  0  0  0  0  0  0  0  0  0
   99.7300  103.8800  106.5880 H   0  0  0  0  0  0  0  0  0  0  0  0
   98.4980  106.2930  107.0880 O   0  0  0  0  0  0  0  0  0  0  0  0
   99.0580  106.5240  108.3740 C   0  0  0  0  0  0  0  0  0  0  0  0
  102.8560   99.4780  106.5530 C   0  0  1  0  0  0  0  0  0  0  0  0
  103.4670  100.3530  107.6570 C   0  0  0  0  0  0  0  0  0  0  0  0
  102.8250   97.9930  106.9490 C   0  0  0  0  0  0  0  0  0  0  0  0
  102.8810  100.0730  109.0410 C   0  0  0  0  0  0  0  0  0  0  0  0
  102.2970   97.7320  108.3630 C   0  0  0  0  0  0  0  0  0  0  0  0
  102.9950   98.5920  109.4220 C   0  0  1  0  0  0  0  0  0  0  0  0
  104.4490   98.1620  109.7420 C   0  0  0  0  0  0  0  0  0  0  0  0
  105.2250   98.0840  108.7460 O   0  0  0  0  0  0  0  0  0  0  0  0
  104.7110   97.9570  110.9600 O   0  0  0  0  0  0  0  0  0  0  0  0
  1 13  1  0  0  0  0
  1  2  1  0  0  0  0
  3  2  2  0  0  0  0
  4  3  1  0  0  0  0
  5  4  1  0  0  0  0
  6  5  2  0  0  0  0
  7  6  1  0  0  0  0
  7  8  2  0  0  0  0
  8 10  1  0  0  0  0
  9  8  1  0  0  0  0
  9 12  1  0  0  0  0
 10  4  1  0  0  0  0
 10  1  2  0  0  0  0
 11  9  1  0  0  0  0
 13 21  2  0  0  0  0
 13 18  1  0  0  0  0
 14 23  1  0  0  0  0
 14 15  1  0  0  0  0
 16 14  2  0  0  0  0
 17 15  2  0  0  0  0
 18 22  1  0  0  0  0
 18 16  1  0  0  0  0
 19 16  1  0  0  0  0
 19 20  2  0  0  0  0
 20 17  1  0  0  0  0
 21 19  1  0  0  0  0
 23 24  1  0  0  0  0
 25  3  1  1  0  0  0
 25 27  1  0  0  0  0
 25 26  1  0  0  0  0
 26 28  1  0  0  0  0
 27 29  1  0  0  0  0
 28 30  1  0  0  0  0
 29 30  1  0  0  0  0
 30 31  1  6  0  0  0
 31 33  1  0  0  0  0
 32 31  2  0  0  0  0
M  END
>  <minimizedAffinity>
-8.40177441

>  <CNNscore>
0.261549652

>  <CNNaffinity>
6.86291361

$$$$

 OpenBabel08282614173D

 33 37  0  0  1  0  0  0  0  0999 V2000
   98.7560  100.9960  104.2890 C   0  0  0  0  0  0  0  0  0  0  0  0
   97.5370  101.3690  104.7940 N   0  0  0  0  0  0  0  0  0  0  0  0
   96.6700  101.1930  103.8110 C   0  0  0  0  0  0  0  0  0  0  0  0
   97.3200  100.7470  102.6780 N   0  0  0  0  0  0  0  0  0  0  0  0
   96.7810  100.3970  101.4910 N   0  0  0  0  0  0  0  0  0  0  0  0
   97.6530  100.0270  100.6080 C   0  0  0  0  0  0  0  0  0  0  0  0
   99.0220  100.0260  100.7450 N   0  0  0  0  0  0  0  0  0  0  0  0
   99.5340  100.3780  101.8870 C   0  0  0  0  0  0  0  0  0  0  0  0
  100.9000  100.4600  101.9520 N   0  0  0  0  0  0  0  0  0  0  0  0
   98.6540  100.7040  102.9510 C   0  0  0  0  0  0  0  0  0  0  0  0
  101.2930  100.3460  101.0210 H   0  0  0  0  0  0  0  0  0  0  0  0
  101.2090  101.3450  102.3490 H   0  0  0  0  0  0  0  0  0  0  0  0
  100.0110  100.9260  105.1920 C   0  0  0  0  0  0  0  0  0  0  0  0
  102.3940   99.3310  107.4090 C   0  0  0  0  0  0  0  0  0  0  0  0
  103.5210   99.9350  107.9830 C   0  0  0  0  0  0  0  0  0  0  0  0
  101.6040  100.1440  106.5840 C   0  0  0  0  0  0  0  0  0  0  0  0
  103.8260  101.2780  107.7500 C   0  0  0  0  0  0  0  0  0  0  0  0
  100.4480   99.8420  105.9000 N   0  0  0  0  0  0  0  0  0  0  0  0
  101.8820  101.4880  106.3320 C   0  0  0  0  0  0  0  0  0  0  0  0
  103.0140  102.0670  106.9290 C   0  0  0  0  0  0  0  0  0  0  0  0
  100.8620  101.9730  105.4670 C   0  0  0  0  0  0  0  0  0  0  0  0
   99.9760   98.9480  105.9480 H   0  0  0  0  0  0  0  0  0  0  0  0
  102.0070   98.0300  107.5670 O   0  0  0  0  0  0  0  0  0  0  0  0
  102.3350   97.4190  108.8080 C   0  0  0  0  0  0  0  0  0  0  0  0
   95.1790  101.4140  103.8450 C   0  0  1  0  0  0  0  0  0  0  0  0
   94.7740  102.6470  103.0220 C   0  0  0  0  0  0  0  0  0  0  0  0
   94.3880  100.1630  103.4300 C   0  0  0  0  0  0  0  0  0  0  0  0
   94.7420  102.3810  101.5160 C   0  0  0  0  0  0  0  0  0  0  0  0
   94.3070   99.9460  101.9160 C   0  0  0  0  0  0  0  0  0  0  0  0
   93.8370  101.1950  101.1640 C   0  0  1  0  0  0  0  0  0  0  0  0
   92.3300  101.5160  101.3330 C   0  0  0  0  0  0  0  0  0  0  0  0
   91.8260  102.2510  100.4360 O   0  0  0  0  0  0  0  0  0  0  0  0
   91.7610  100.9940  102.3320 O   0  0  0  0  0  0  0  0  0  0  0  0
  1  2  1  0  0  0  0
  1 13  1  0  0  0  0
  3  2  2  0  0  0  0
  4 10  1  0  0  0  0
  4  3  1  0  0  0  0
  5  4  1  0  0  0  0
  6  7  1  0  0  0  0
  6  5  2  0  0  0  0
  7  8  2  0  0  0  0
  8  9  1  0  0  0  0
  8 10  1  0  0  0  0
  9 12  1  0  0  0  0
 10  1  2  0  0  0  0
 11  9  1  0  0  0  0
 13 21  2  0  0  0  0
 13 18  1  0  0  0  0
 14 23  1  0  0  0  0
 14 15  1  0  0  0  0
 16 14  2  0  0  0  0
 17 15  2  0  0  0  0
 18 22  1  0  0  0  0
 18 16  1  0  0  0  0
 19 16  1  0  0  0  0
 19 20  2  0  0  0  0
 20 17  1  0  0  0  0
 21 19  1  0  0  0  0
 23 24  1  0  0  0  0
 25  3  1  6  0  0  0
 26 25  1  0  0  0  0
 27 25  1  0  0  0  0
 28 26  1  0  0  0  0
 29 27  1  0  0  0  0
 30 31  1  1  0  0  0
 30 28  1  0  0  0  0
 30 29  1  0  0  0  0
 31 33  1  0  0  0  0
 32 31  2  0  0  0  0
M  END
>  <minimizedAffinity>
-7.06934881

>  <CNNscore>
0.20991601

>  <CNNaffinity>
6.39110947

$$$$

 OpenBabel08282614173D

 33 37  0  0  1  0  0  0  0  0999 V2000
   98.6910  102.0660  104.3040 C   0  0  0  0  0  0  0  0  0  0  0  0
   97.5710  101.9180  103.5270 N   0  0  0  0  0  0  0  0  0  0  0  0
   97.6990  100.7440  102.9310 C   0  0  0  0  0  0  0  0  0  0  0  0
   98.8960  100.1570  103.2870 N   0  0  0  0  0  0  0  0  0  0  0  0
   99.3650   98.9400  102.9390 N   0  0  0  0  0  0  0  0  0  0  0  0
  100.5360   98.6700  103.4230 C   0  0  0  0  0  0  0  0  0  0  0  0
  101.3360   99.5050  104.1680 N   0  0  0  0  0  0  0  0  0  0  0  0
  100.8830  100.6810  104.4870 C   0  0  0  0  0  0  0  0  0  0  0  0
  101.7480  101.5180  105.1430 N   0  0  0  0  0  0  0  0  0  0  0  0
   99.5670  101.0310  104.0890 C   0  0  0  0  0  0  0  0  0  0  0  0
  102.6760  101.1040  105.1600 H   0  0  0  0  0  0  0  0  0  0  0  0
  101.7900  102.4370  104.7080 H   0  0  0  0  0  0  0  0  0  0  0  0
   98.8420  103.2630  105.2730 C   0  0  0  0  0  0  0  0  0  0  0  0
   98.7890  104.9250  108.4940 C   0  0  0  0  0  0  0  0  0  0  0  0
   99.0850  106.2740  108.7330 C   0  0  0  0  0  0  0  0  0  0  0  0
   98.8670  104.4960  107.1610 C   0  0  0  0  0  0  0  0  0  0  0  0
   99.4250  107.1400  107.6920 C   0  0  0  0  0  0  0  0  0  0  0  0
   98.6270  103.2520  106.6230 N   0  0  0  0  0  0  0  0  0  0  0  0
   99.2040  105.3360  106.1000 C   0  0  0  0  0  0  0  0  0  0  0  0
   99.4860  106.6860  106.3710 C   0  0  0  0  0  0  0  0  0  0  0  0
   99.1690  104.5510  104.9140 C   0  0  0  0  0  0  0  0  0  0  0  0
   98.3040  102.4550  107.1560 H   0  0  0  0  0  0  0  0  0  0  0  0
   98.4500  103.9940  109.4360 O   0  0  0  0  0  0  0  0  0  0  0  0
   97.2150  103.3180  109.2400 C   0  0  0  0  0  0  0  0  0  0  0  0
   96.7250  100.0730  101.9950 C   0  0  1  0  0  0  0  0  0  0  0  0
   95.7310   99.1860  102.7610 C   0  0  0  0  0  0  0  0  0  0  0  0
   96.0090  101.0730  101.0740 C   0  0  0  0  0  0  0  0  0  0  0  0
   94.6070   99.9780  103.4290 C   0  0  0  0  0  0  0  0  0  0  0  0
   94.8420  101.8120  101.7370 C   0  0  0  0  0  0  0  0  0  0  0  0
   93.8570  100.8620  102.4270 C   0  0  1  0  0  0  0  0  0  0  0  0
   92.9640  100.0480  101.4560 C   0  0  0  0  0  0  0  0  0  0  0  0
   92.8770  100.5070  100.2810 O   0  0  0  0  0  0  0  0  0  0  0  0
   92.4360   99.0040  101.9330 O   0  0  0  0  0  0  0  0  0  0  0  0
  1 13  1  0  0  0  0
  2  1  1  0  0  0  0
  3  4  1  0  0  0  0
  3  2  2  0  0  0  0
  4 10  1  0  0  0  0
  5  4  1  0  0  0  0
  5  6  2  0  0  0  0
  6  7  1  0  0  0  0
  7  8  2  0  0  0  0
  8  9  1  0  0  0  0
  9 11  1  0  0  0  0
 10  1  2  0  0  0  0
 10  8  1  0  0  0  0
 12  9  1  0  0  0  0
 13 18  1  0  0  0  0
 14 15  1  0  0  0  0
 14 23  1  0  0  0  0
 16 14  2  0  0  0  0
 17 15  2  0  0  0  0
 18 22  1  0  0  0  0
 18 16  1  0  0  0  0
 19 20  2  0  0  0  0
 19 16  1  0  0  0  0
 20 17  1  0  0  0  0
 21 13  2  0  0  0  0
 21 19  1  0  0  0  0
 24 23  1  0  0  0  0
 25 26  1  0  0  0  0
 25  3  1  1  0  0  0
 26 28  1  0  0  0  0
 27 29  1  0  0  0  0
 27 25  1  0  0  0  0
 29 30  1  0  0  0  0
 30 31  1  6  0  0  0
 30 28  1  0  0  0  0
 31 33  1  0  0  0  0
 32 31  2  0  0  0  0
M  END
>  <minimizedAffinity>
-8.21093178

>  <CNNscore>
0.209896132

>  <CNNaffinity>
6.4750309

$$$$

 OpenBabel08282614173D

 33 37  0  0  1  0  0  0  0  0999 V2000
  100.4860  100.7890  106.0050 C   0  0  0  0  0  0  0  0  0  0  0  0
   99.9660  100.1210  104.9260 N   0  0  0  0  0  0  0  0  0  0  0  0
   99.3030  101.0270  104.2260 C   0  0  0  0  0  0  0  0  0  0  0  0
   99.3620  102.2520  104.8570 N   0  0  0  0  0  0  0  0  0  0  0  0
   98.8650  103.4340  104.4340 N   0  0  0  0  0  0  0  0  0  0  0  0
   99.0690  104.4140  105.2560 C   0  0  0  0  0  0  0  0  0  0  0  0
   99.6590  104.3450  106.4970 N   0  0  0  0  0  0  0  0  0  0  0  0
  100.1230  103.2010  106.9030 C   0  0  0  0  0  0  0  0  0  0  0  0
  100.6120  103.1530  108.1830 N   0  0  0  0  0  0  0  0  0  0  0  0
  100.0380  102.0870  106.0290 C   0  0  0  0  0  0  0  0  0  0  0  0
  100.4070  104.0270  108.6590 H   0  0  0  0  0  0  0  0  0  0  0  0
  100.2200  102.3760  108.7100 H   0  0  0  0  0  0  0  0  0  0  0  0
  101.4530  100.0910  106.9910 C   0  0  0  0  0  0  0  0  0  0  0  0
  104.2250   97.9550  107.9360 C   0  0  0  0  0  0  0  0  0  0  0  0
  104.6670   97.7040  109.2420 C   0  0  0  0  0  0  0  0  0  0  0  0
  103.1230   98.8130  107.8050 C   0  0  0  0  0  0  0  0  0  0  0  0
  104.0300   98.2720  110.3480 C   0  0  0  0  0  0  0  0  0  0  0  0
  102.4670   99.2330  106.6700 N   0  0  0  0  0  0  0  0  0  0  0  0
  102.4670   99.3960  108.8890 C   0  0  0  0  0  0  0  0  0  0  0  0
  102.9280   99.1180  110.1870 C   0  0  0  0  0  0  0  0  0  0  0  0
  101.4060  100.1860  108.3630 C   0  0  0  0  0  0  0  0  0  0  0  0
  102.6900   98.9180  105.7340 H   0  0  0  0  0  0  0  0  0  0  0  0
  104.7740   97.4560  106.7880 O   0  0  0  0  0  0  0  0  0  0  0  0
  106.0410   96.8250  106.9160 C   0  0  0  0  0  0  0  0  0  0  0  0
   98.5740  100.8320  102.9200 C   0  0  1  0  0  0  0  0  0  0  0  0
   98.4040   99.3430  102.5880 C   0  0  0  0  0  0  0  0  0  0  0  0
   97.2350  101.5860  102.8760 C   0  0  0  0  0  0  0  0  0  0  0  0
   97.2700   98.6770  103.3670 C   0  0  0  0  0  0  0  0  0  0  0  0
   96.0910  100.8750  103.6040 C   0  0  0  0  0  0  0  0  0  0  0  0
   95.9380   99.4110  103.1790 C   0  0  1  0  0  0  0  0  0  0  0  0
   95.3370   99.2140  101.7630 C   0  0  0  0  0  0  0  0  0  0  0  0
   94.7240   98.1240  101.5790 O   0  0  0  0  0  0  0  0  0  0  0  0
   95.5020  100.1700  100.9540 O   0  0  0  0  0  0  0  0  0  0  0  0
  1 10  2  0  0  0  0
  1 13  1  0  0  0  0
  2  1  1  0  0  0  0
  3  4  1  0  0  0  0
  3  2  2  0  0  0  0
  4 10  1  0  0  0  0
  5  4  1  0  0  0  0
  5  6  2  0  0  0  0
  6  7  1  0  0  0  0
  7  8  2  0  0  0  0
  8  9  1  0  0  0  0
  9 11  1  0  0  0  0
  9 12  1  0  0  0  0
 10  8  1  0  0  0  0
 13 21  2  0  0  0  0
 14 15  1  0  0  0  0
 15 17  2  0  0  0  0
 16 14  2  0  0  0  0
 16 19  1  0  0  0  0
 18 13  1  0  0  0  0
 18 16  1  0  0  0  0
 19 20  2  0  0  0  0
 20 17  1  0  0  0  0
 21 19  1  0  0  0  0
 22 18  1  0  0  0  0
 23 24  1  0  0  0  0
 23 14  1  0  0  0  0
 25  3  1  1  0  0  0
 26 25  1  0  0  0  0
 26 28  1  0  0  0  0
 27 25  1  0  0  0  0
 27 29  1  0  0  0  0
 30 31  1  6  0  0  0
 30 28  1  0  0  0  0
 30 29  1  0  0  0  0
 32 31  1  0  0  0  0
 33 31  2  0  0  0  0
M  END
>  <minimizedAffinity>
-7.4359374

>  <CNNscore>
0.18320781

>  <CNNaffinity>
6.64168882

$$$$

 OpenBabel08282614173D

 33 37  0  0  1  0  0  0  0  0999 V2000
  100.4400  101.8090  105.8980 C   0  0  0  0  0  0  0  0  0  0  0  0
  101.3690  101.1320  106.6440 N   0  0  0  0  0  0  0  0  0  0  0  0
  101.3470   99.8850  106.2030 C   0  0  0  0  0  0  0  0  0  0  0  0
  100.3960   99.7480  105.2130 N   0  0  0  0  0  0  0  0  0  0  0  0
  100.1110   98.6540  104.4750 N   0  0  0  0  0  0  0  0  0  0  0  0
   99.1510   98.8300  103.6230 C   0  0  0  0  0  0  0  0  0  0  0  0
   98.3860   99.9620  103.4610 N   0  0  0  0  0  0  0  0  0  0  0  0
   98.6580  101.0070  104.1840 C   0  0  0  0  0  0  0  0  0  0  0  0
   97.8110  102.0780  104.0640 N   0  0  0  0  0  0  0  0  0  0  0  0
   99.7590  100.9450  105.0760 C   0  0  0  0  0  0  0  0  0  0  0  0
   97.0090  101.8160  103.4970 H   0  0  0  0  0  0  0  0  0  0  0  0
   97.4950  102.4150  104.9700 H   0  0  0  0  0  0  0  0  0  0  0  0
  100.2740  103.3430  106.0230 C   0  0  0  0  0  0  0  0  0  0  0  0
   99.0300  106.4160  107.4890 C   0  0  0  0  0  0  0  0  0  0  0  0
   99.3090  107.7160  107.0440 C   0  0  0  0  0  0  0  0  0  0  0  0
   99.6160  105.3690  106.7620 C   0  0  0  0  0  0  0  0  0  0  0  0
  100.1170  107.9460  105.9290 C   0  0  0  0  0  0  0  0  0  0  0  0
   99.5210  104.0090  106.9490 N   0  0  0  0  0  0  0  0  0  0  0  0
  100.4280  105.5670  105.6450 C   0  0  0  0  0  0  0  0  0  0  0  0
  100.6810  106.8820  105.2180 C   0  0  0  0  0  0  0  0  0  0  0  0
  100.8220  104.2820  105.1800 C   0  0  0  0  0  0  0  0  0  0  0  0
   98.9430  103.5710  107.6550 H   0  0  0  0  0  0  0  0  0  0  0  0
   98.2590  106.0790  108.5660 O   0  0  0  0  0  0  0  0  0  0  0  0
   98.9230  105.4270  109.6400 C   0  0  0  0  0  0  0  0  0  0  0  0
  102.2050   98.7300  106.6550 C   0  0  1  0  0  0  0  0  0  0  0  0
  103.6790   99.1410  106.7840 C   0  0  0  0  0  0  0  0  0  0  0  0
  101.6780   98.0740  107.9410 C   0  0  0  0  0  0  0  0  0  0  0  0
  103.9780   99.9180  108.0660 C   0  0  0  0  0  0  0  0  0  0  0  0
  102.0420   98.8270  109.2240 C   0  0  0  0  0  0  0  0  0  0  0  0
  103.5370   99.1500  109.3170 C   0  0  1  0  0  0  0  0  0  0  0  0
  104.4390   97.9270  109.6220 C   0  0  0  0  0  0  0  0  0  0  0  0
  104.7730   97.7840  110.8330 O   0  0  0  0  0  0  0  0  0  0  0  0
  104.7280   97.1920  108.6360 O   0  0  0  0  0  0  0  0  0  0  0  0
  1 13  1  0  0  0  0
  1  2  1  0  0  0  0
  3  2  2  0  0  0  0
  4  3  1  0  0  0  0
  5  4  1  0  0  0  0
  6  5  2  0  0  0  0
  7  6  1  0  0  0  0
  7  8  2  0  0  0  0
  8 10  1  0  0  0  0
  9  8  1  0  0  0  0
  9 12  1  0  0  0  0
 10  4  1  0  0  0  0
 10  1  2  0  0  0  0
 11  9  1  0  0  0  0
 13 18  1  0  0  0  0
 14 23  1  0  0  0  0
 15 14  1  0  0  0  0
 16 18  1  0  0  0  0
 16 14  2  0  0  0  0
 17 15  2  0  0  0  0
 18 22  1  0  0  0  0
 19 16  1  0  0  0  0
 20 19  2  0  0  0  0
 20 17  1  0  0  0  0
 21 19  1  0  0  0  0
 21 13  2  0  0  0  0
 23 24  1  0  0  0  0
 25  3  1  1  0  0  0
 25 26  1  0  0  0  0
 25 27  1  0  0  0  0
 26 28  1  0  0  0  0
 27 29  1  0  0  0  0
 28 30  1  0  0  0  0
 29 30  1  0  0  0  0
 30 31  1  6  0  0  0
 31 32  1  0  0  0  0
 33 31  2  0  0  0  0
M  END
>  <minimizedAffinity>
-7.5766654

>  <CNNscore>
0.180139244

>  <CNNaffinity>
6.73636675

$$$$

 OpenBabel08282614173D

 33 37  0  0  1  0  0  0  0  0999 V2000
   93.9140   99.2910  104.6110 C   0  0  0  0  0  0  0  0  0  0  0  0
   94.7710   99.9990  105.4140 N   0  0  0  0  0  0  0  0  0  0  0  0
   95.5870  100.6410  104.5950 C   0  0  0  0  0  0  0  0  0  0  0  0
   95.2880  100.3280  103.2850 N   0  0  0  0  0  0  0  0  0  0  0  0
   95.8490  100.8210  102.1600 N   0  0  0  0  0  0  0  0  0  0  0  0
   95.3620  100.3230  101.0680 C   0  0  0  0  0  0  0  0  0  0  0  0
   94.4150   99.3310  100.9610 N   0  0  0  0  0  0  0  0  0  0  0  0
   93.8880   98.8530  102.0480 C   0  0  0  0  0  0  0  0  0  0  0  0
   93.0240   97.7990  101.9030 N   0  0  0  0  0  0  0  0  0  0  0  0
   94.2840   99.4060  103.2930 C   0  0  0  0  0  0  0  0  0  0  0  0
   93.0370   97.4780  100.9390 H   0  0  0  0  0  0  0  0  0  0  0  0
   93.2580   97.0270  102.5250 H   0  0  0  0  0  0  0  0  0  0  0  0
   92.7120   98.5180  105.2030 C   0  0  0  0  0  0  0  0  0  0  0  0
   90.2110   95.8970  105.3200 C   0  0  0  0  0  0  0  0  0  0  0  0
   89.2380   95.7270  106.3150 C   0  0  0  0  0  0  0  0  0  0  0  0
   91.0750   96.9910  105.4750 C   0  0  0  0  0  0  0  0  0  0  0  0
   89.1340   96.6110  107.3910 C   0  0  0  0  0  0  0  0  0  0  0  0
   92.1080   97.4140  104.6690 N   0  0  0  0  0  0  0  0  0  0  0  0
   90.9980   97.8900  106.5380 C   0  0  0  0  0  0  0  0  0  0  0  0
   90.0060   97.6980  107.5140 C   0  0  0  0  0  0  0  0  0  0  0  0
   92.0240   98.8560  106.3460 C   0  0  0  0  0  0  0  0  0  0  0  0
   92.3560   96.9830  103.7880 H   0  0  0  0  0  0  0  0  0  0  0  0
   90.4010   95.0930  104.2320 O   0  0  0  0  0  0  0  0  0  0  0  0
   89.6620   93.8790  104.2060 C   0  0  0  0  0  0  0  0  0  0  0  0
   96.6960  101.5960  104.9580 C   0  0  1  0  0  0  0  0  0  0  0  0
   96.6550  102.8620  104.0900 C   0  0  0  0  0  0  0  0  0  0  0  0
   96.7190  101.9290  106.4580 C   0  0  0  0  0  0  0  0  0  0  0  0
   95.5900  103.8650  104.5370 C   0  0  0  0  0  0  0  0  0  0  0  0
   95.6920  102.9840  106.8820 C   0  0  0  0  0  0  0  0  0  0  0  0
   95.7480  104.2450  106.0140 C   0  0  1  0  0  0  0  0  0  0  0  0
   96.9810  105.1490  106.2740 C   0  0  0  0  0  0  0  0  0  0  0  0
   97.4670  105.0840  107.4400 O   0  0  0  0  0  0  0  0  0  0  0  0
   97.3820  105.8350  105.2930 O   0  0  0  0  0  0  0  0  0  0  0  0
  1 13  1  0  0  0  0
  1  2  1  0  0  0  0
  3  2  2  0  0  0  0
  4 10  1  0  0  0  0
  4  3  1  0  0  0  0
  5  4  1  0  0  0  0
  6  5  2  0  0  0  0
  7  6  1  0  0  0  0
  7  8  2  0  0  0  0
  8 10  1  0  0  0  0
  9  8  1  0  0  0  0
  9 12  1  0  0  0  0
 10  1  2  0  0  0  0
 11  9  1  0  0  0  0
 13 21  2  0  0  0  0
 14 16  2  0  0  0  0
 14 15  1  0  0  0  0
 15 17  2  0  0  0  0
 16 19  1  0  0  0  0
 17 20  1  0  0  0  0
 18 13  1  0  0  0  0
 18 16  1  0  0  0  0
 19 20  2  0  0  0  0
 21 19  1  0  0  0  0
 22 18  1  0  0  0  0
 23 14  1  0  0  0  0
 24 23  1  0  0  0  0
 25  3  1  1  0  0  0
 25 27  1  0  0  0  0
 26 28  1  0  0  0  0
 26 25  1  0  0  0  0
 27 29  1  0  0  0  0
 28 30  1  0  0  0  0
 30 31  1  6  0  0  0
 30 29  1  0  0  0  0
 31 32  1  0  0  0  0
 33 31  2  0  0  0  0
M  END
>  <minimizedAffinity>
-7.93738174

>  <CNNscore>
0.173401475

>  <CNNaffinity>
5.55174398

$$$$
