KOBKLBFNTIJTTR-UHFFFAOYSA-N
     RDKit          3D

 35 39  0  0  0  0  0  0  0  0999 V2000
   15.1540   28.9160    6.1650 C   0  0  0  0  0  0  0  0  0  0  0  0
   15.7650   30.1150    6.8270 C   0  0  0  0  0  0  0  0  0  0  0  0
   17.0940   30.4490    6.5790 C   0  0  0  0  0  0  0  0  0  0  0  0
   17.6400   31.5670    7.2080 C   0  0  0  0  0  0  0  0  0  0  0  0
   16.8390   32.3310    8.0520 C   0  0  0  0  0  0  0  0  0  0  0  0
   17.2750   33.4260    8.7570 O   0  0  0  0  0  0  0  0  0  0  0  0
   17.2420   33.3430   10.1270 C   0  0  0  0  0  0  0  0  0  0  0  0
   16.4220   34.2330   10.8130 C   0  0  0  0  0  0  0  0  0  0  0  0
   16.3790   34.2040   12.2130 C   0  0  0  0  0  0  0  0  0  0  0  0
   17.1650   33.3070   12.9500 C   0  0  0  0  0  0  0  0  0  0  0  0
   17.1560   33.2250   14.3520 N   0  0  0  0  0  0  0  0  0  0  0  0
   17.1180   34.1950   15.3640 C   0  0  0  0  0  0  0  0  0  0  0  0
   16.1070   34.2710   16.2700 N   0  0  0  0  0  0  0  0  0  0  0  0
   16.1360   35.2260   17.2220 C   0  0  0  0  0  0  0  0  0  0  0  0
   17.0740   36.1680   17.4230 N   0  0  0  0  0  0  0  0  0  0  0  0
   18.0550   36.0620   16.5150 C   0  0  0  0  0  0  0  0  0  0  0  0
   19.1640   36.8510   16.4190 N   0  0  0  0  0  0  0  0  0  0  0  0
   19.9860   36.5120   15.4020 N   0  0  0  0  0  0  0  0  0  0  0  0
   19.3560   35.4710   14.8490 C   0  0  0  0  0  0  0  0  0  0  0  0
   19.8610   34.8300   13.7700 O   0  0  0  0  0  0  0  0  0  0  0  0
   20.9820   33.9740   14.0260 C   0  0  0  0  0  0  0  0  0  0  0  0
   22.0830   34.1600   12.9660 C   0  0  0  0  0  0  0  0  0  0  0  0
   23.3170   34.7880   13.4870 N   0  0  0  0  0  0  0  0  0  0  0  0
   24.4410   34.4890   12.5780 C   0  0  0  0  0  0  0  0  0  0  0  0
   25.7540   35.0600   13.1140 C   0  0  0  0  0  0  0  0  0  0  0  0
   25.6530   36.5590   13.3600 C   0  0  0  0  0  0  0  0  0  0  0  0
   25.5940   37.2380   12.1050 O   0  0  0  0  0  0  0  0  0  0  0  0
   24.4200   36.8920   14.1920 C   0  0  0  0  0  0  0  0  0  0  0  0
   23.1570   36.2470   13.6160 C   0  0  0  0  0  0  0  0  0  0  0  0
   18.1480   35.1380   15.4930 C   0  0  0  0  0  0  0  0  0  0  0  0
   18.0030   32.4350   12.2360 C   0  0  0  0  0  0  0  0  0  0  0  0
   18.0440   32.4610   10.8430 C   0  0  0  0  0  0  0  0  0  0  0  0
   18.8780   31.6250   10.2070 F   0  0  0  0  0  0  0  0  0  0  0  0
   15.5310   31.9170    8.2550 C   0  0  0  0  0  0  0  0  0  0  0  0
   14.9760   30.8320    7.6620 N   0  0  0  0  0  0  0  0  0  0  0  0
  1  2  1  0
  2  3  2  0
  3  4  1  0
  4  5  2  0
  5  6  1  0
  6  7  1  0
  7  8  2  0
  8  9  1  0
  9 10  2  0
 10 11  1  0
 11 12  1  0
 12 13  2  0
 13 14  1  0
 14 15  2  0
 15 16  1  0
 16 17  1  0
 17 18  1  0
 18 19  2  0
 19 20  1  0
 20 21  1  0
 21 22  1  0
 22 23  1  0
 23 24  1  0
 24 25  1  0
 25 26  1  0
 26 27  1  0
 26 28  1  0
 28 29  1  0
 19 30  1  0
 10 31  1  0
 31 32  2  0
 32 33  1  0
  5 34  1  0
 34 35  2  0
 35  2  1  0
 32  7  1  0
 30 12  1  0
 30 16  2  0
 29 23  1  0
M  END
$$$$
