UBPYILGKFZZVDX-UHFFFAOYSA-N
     RDKit          3D

 36 39  0  0  0  0  0  0  0  0999 V2000
   13.4060    1.5560   27.7980 C   0  0  0  0  0  0  0  0  0  0  0  0
   14.7740    1.1730   27.8570 O   0  0  0  0  0  0  0  0  0  0  0  0
   15.5850    1.5420   26.8170 C   0  0  0  0  0  0  0  0  0  0  0  0
   15.3480    2.6420   25.9820 C   0  0  0  0  0  0  0  0  0  0  0  0
   16.2300    2.9750   24.9390 C   0  0  0  0  0  0  0  0  0  0  0  0
   16.0370    4.1250   24.1380 N   0  0  0  0  0  0  0  0  0  0  0  0
   15.7590    5.4680   24.4990 C   0  0  0  0  0  0  0  0  0  0  0  0
   16.7940    6.4160   24.4710 C   0  0  0  0  0  0  0  0  0  0  0  0
   18.1430    6.0710   24.1470 C   0  0  0  0  0  0  0  0  0  0  0  0
   19.2390    5.7880   23.8970 N   0  0  0  0  0  0  0  0  0  0  0  0
   16.4850    7.7350   24.7430 C   0  0  0  0  0  0  0  0  0  0  0  0
   15.2440    8.1720   25.0380 N   0  0  0  0  0  0  0  0  0  0  0  0
   14.2480    7.2760   25.0960 C   0  0  0  0  0  0  0  0  0  0  0  0
   12.9810    7.7380   25.4210 C   0  0  0  0  0  0  0  0  0  0  0  0
   11.8820    6.8810   25.5230 C   0  0  0  0  0  0  0  0  0  0  0  0
   10.6070    7.2840   25.8260 O   0  0  0  0  0  0  0  0  0  0  0  0
   10.0000    8.2740   24.9960 C   0  0  0  0  0  0  0  0  0  0  0  0
    9.8010    7.6840   23.6000 C   0  0  0  0  0  0  0  0  0  0  0  0
   10.2750    8.6210   22.4800 C   0  0  0  0  0  0  0  0  0  0  0  0
   11.3860    8.0720   21.6830 N   0  0  0  0  0  0  0  0  0  0  0  0
   11.5440    6.6280   21.9630 C   0  0  0  0  0  0  0  0  0  0  0  0
   12.7270    6.0020   21.1920 C   0  0  0  0  0  0  0  0  0  0  0  0
   14.0010    6.6840   21.4850 N   0  0  0  0  0  0  0  0  0  0  0  0
   15.0890    6.1100   20.6970 C   0  0  0  0  0  0  0  0  0  0  0  0
   13.8530    8.1240   21.2010 C   0  0  0  0  0  0  0  0  0  0  0  0
   12.6660    8.7540   21.9680 C   0  0  0  0  0  0  0  0  0  0  0  0
   12.0580    5.5100   25.2950 C   0  0  0  0  0  0  0  0  0  0  0  0
   10.9440    4.7200   25.4170 O   0  0  0  0  0  0  0  0  0  0  0  0
   11.1310    3.3120   25.3690 C   0  0  0  0  0  0  0  0  0  0  0  0
   13.3340    5.0310   24.9880 C   0  0  0  0  0  0  0  0  0  0  0  0
   14.4430    5.9000   24.8480 C   0  0  0  0  0  0  0  0  0  0  0  0
   17.3630    2.1600   24.7430 C   0  0  0  0  0  0  0  0  0  0  0  0
   18.4950    2.5180   23.4840 Cl  0  0  0  0  0  0  0  0  0  0  0  0
   17.6060    1.0530   25.5540 C   0  0  0  0  0  0  0  0  0  0  0  0
   16.7200    0.7500   26.5870 C   0  0  0  0  0  0  0  0  0  0  0  0
   17.0770   -0.6240   27.5780 Cl  0  0  0  0  0  0  0  0  0  0  0  0
  1  2  1  0
  2  3  1  0
  3  4  2  0
  4  5  1  0
  5  6  1  0
  6  7  1  0
  7  8  2  0
  8  9  1  0
  9 10  3  0
  8 11  1  0
 11 12  2  0
 12 13  1  0
 13 14  2  0
 14 15  1  0
 15 16  1  0
 16 17  1  0
 17 18  1  0
 18 19  1  0
 19 20  1  0
 20 21  1  0
 21 22  1  0
 22 23  1  0
 23 24  1  0
 23 25  1  0
 25 26  1  0
 15 27  2  0
 27 28  1  0
 28 29  1  0
 27 30  1  0
 30 31  2  0
  5 32  2  0
 32 33  1  0
 32 34  1  0
 34 35  2  0
 35 36  1  0
 35  3  1  0
 31  7  1  0
 31 13  1  0
 26 20  1  0
M  END
$$$$
