BWQAEQBADOVIBT-UHFFFAOYSA-N
     RDKit          3D

 40 44  0  0  0  0  0  0  0  0999 V2000
    3.4120    6.6750   -0.2260 C   0  0  0  0  0  0  0  0  0  0  0  0
    4.2280    6.4280   -1.4260 C   0  0  0  0  0  0  0  0  0  0  0  0
    5.2710    5.5550   -1.3020 O   0  0  0  0  0  0  0  0  0  0  0  0
    5.8450    5.5300   -2.5460 C   0  0  0  0  0  0  0  0  0  0  0  0
    7.0080    4.6610   -2.7180 C   0  0  0  0  0  0  0  0  0  0  0  0
    7.2640    4.0840   -3.9690 C   0  0  0  0  0  0  0  0  0  0  0  0
    8.3720    3.2480   -4.1620 C   0  0  0  0  0  0  0  0  0  0  0  0
    9.2560    2.9640   -3.1100 C   0  0  0  0  0  0  0  0  0  0  0  0
   10.4220    2.0880   -3.3130 C   0  0  0  0  0  0  0  0  0  0  0  0
   11.2080    1.6670   -2.2270 C   0  0  0  0  0  0  0  0  0  0  0  0
   12.3170    0.8370   -2.4190 C   0  0  0  0  0  0  0  0  0  0  0  0
   12.6580    0.4150   -3.7010 C   0  0  0  0  0  0  0  0  0  0  0  0
   11.8920    0.8200   -4.7910 C   0  0  0  0  0  0  0  0  0  0  0  0
   10.7840    1.6510   -4.5980 C   0  0  0  0  0  0  0  0  0  0  0  0
    8.9950    3.5440   -1.8590 C   0  0  0  0  0  0  0  0  0  0  0  0
    7.8880    4.3790   -1.6650 C   0  0  0  0  0  0  0  0  0  0  0  0
    5.2500    6.3120   -3.4280 N   0  0  0  0  0  0  0  0  0  0  0  0
    4.2170    6.8920   -2.7250 C   0  0  0  0  0  0  0  0  0  0  0  0
    3.2960    7.8590   -3.3830 C   0  0  0  0  0  0  0  0  0  0  0  0
    4.0370    8.8740   -4.2520 C   0  0  0  0  0  0  0  0  0  0  0  0
    4.9340    9.6220   -3.4250 O   0  0  0  0  0  0  0  0  0  0  0  0
    6.1420    9.9660   -3.9680 C   0  0  0  0  0  0  0  0  0  0  0  0
    6.4630    9.9650   -5.3240 C   0  0  0  0  0  0  0  0  0  0  0  0
    7.7440   10.3390   -5.7450 C   0  0  0  0  0  0  0  0  0  0  0  0
    8.7210   10.7210   -4.8160 C   0  0  0  0  0  0  0  0  0  0  0  0
   10.1100   11.1190   -5.2760 C   0  0  0  0  0  0  0  0  0  0  0  0
   10.3100   11.2470   -6.8160 C   0  0  1  0  0  0  0  0  0  0  0  0
   11.7860   11.0090   -7.1880 C   0  0  0  0  0  0  0  0  0  0  0  0
    9.4270   10.2750   -7.4030 O   0  0  0  0  0  0  0  0  0  0  0  0
    9.8060    9.5510   -8.4950 C   0  0  0  0  0  0  0  0  0  0  0  0
    9.8250    8.1660   -8.3070 C   0  0  0  0  0  0  0  0  0  0  0  0
   10.1760    7.3110   -9.3510 C   0  0  0  0  0  0  0  0  0  0  0  0
   10.4970    7.8370  -10.6000 C   0  0  0  0  0  0  0  0  0  0  0  0
   10.4550    9.2160  -10.8010 C   0  0  0  0  0  0  0  0  0  0  0  0
   10.1030   10.0720   -9.7530 C   0  0  0  0  0  0  0  0  0  0  0  0
    9.8750   12.6900   -7.1310 C   0  0  0  0  0  0  0  0  0  0  0  0
    9.1150   13.0590   -8.0130 O   0  0  0  0  0  0  0  0  0  0  0  0
   10.3880   13.6110   -6.2840 O   0  0  0  0  0  0  0  0  0  0  0  0
    8.3910   10.7230   -3.4570 C   0  0  0  0  0  0  0  0  0  0  0  0
    7.1110   10.3520   -3.0400 C   0  0  0  0  0  0  0  0  0  0  0  0
  1  2  1  0
  2  3  1  0
  3  4  1  0
  4  5  1  0
  5  6  2  0
  6  7  1  0
  7  8  2  0
  8  9  1  0
  9 10  2  0
 10 11  1  0
 11 12  2  0
 12 13  1  0
 13 14  2  0
  8 15  1  0
 15 16  2  0
  4 17  2  0
 17 18  1  0
 18 19  1  0
 19 20  1  0
 20 21  1  0
 21 22  1  0
 22 23  2  0
 23 24  1  0
 24 25  2  0
 25 26  1  0
 26 27  1  0
 27 28  1  1
 27 29  1  0
 29 30  1  0
 30 31  2  0
 31 32  1  0
 32 33  2  0
 33 34  1  0
 34 35  2  0
 27 36  1  0
 36 37  2  0
 36 38  1  0
 25 39  1  0
 39 40  2  0
 18  2  2  0
 40 22  1  0
 16  5  1  0
 35 30  1  0
 14  9  1  0
M  END
$$$$
