BSSQEPGQHLMMHM-UHFFFAOYSA-N
     RDKit          3D

 45 50  0  0  0  0  0  0  0  0999 V2000
   12.3410  -26.9430   27.5470 O   0  0  0  0  0  0  0  0  0  0  0  0
   11.9490  -27.1600   26.4020 C   0  0  0  0  0  0  0  0  0  0  0  0
   12.9410  -27.4820   25.2940 C   0  0  0  0  0  0  0  0  0  0  0  0
   13.7770  -28.7250   25.5950 C   0  0  0  0  0  0  0  0  0  0  0  0
   15.2450  -28.5120   25.2930 C   0  0  0  0  0  0  0  0  0  0  0  0
   15.6840  -27.3740   25.8820 F   0  0  0  0  0  0  0  0  0  0  0  0
   15.4360  -28.3710   23.9610 F   0  0  0  0  0  0  0  0  0  0  0  0
   16.0290  -29.5170   25.7180 F   0  0  0  0  0  0  0  0  0  0  0  0
   10.6020  -27.1580   26.0630 N   0  0  0  0  0  0  0  0  0  0  0  0
    9.7360  -28.3320   26.1580 C   0  0  0  0  0  0  0  0  0  0  0  0
    8.4910  -28.2040   25.3310 C   0  0  0  0  0  0  0  0  0  0  0  0
    8.1600  -27.1270   24.5930 C   0  0  0  0  0  0  0  0  0  0  0  0
    6.9450  -27.0590   23.7750 C   0  0  0  0  0  0  0  0  0  0  0  0
    6.3190  -28.2020   23.3970 C   0  0  0  0  0  0  0  0  0  0  0  0
    5.0960  -28.2070   22.6110 C   0  0  0  0  0  0  0  0  0  0  0  0
    4.5520  -27.0340   22.2550 C   0  0  0  0  0  0  0  0  0  0  0  0
    5.1680  -25.8450   22.6360 N   0  0  0  0  0  0  0  0  0  0  0  0
    4.7670  -24.5820   22.3780 N   0  0  0  0  0  0  0  0  0  0  0  0
    5.7160  -23.8430   22.9520 C   0  0  0  0  0  0  0  0  0  0  0  0
    5.8470  -22.5050   23.0090 N   0  0  0  0  0  0  0  0  0  0  0  0
    5.6060  -21.4830   22.0740 C   0  0  0  0  0  0  0  0  0  0  0  0
    5.3880  -20.1760   22.5480 C   0  0  0  0  0  0  0  0  0  0  0  0
    5.1230  -19.1200   21.6710 C   0  0  0  0  0  0  0  0  0  0  0  0
    5.0560  -19.3620   20.3000 C   0  0  0  0  0  0  0  0  0  0  0  0
    4.7710  -18.2370   19.3840 C   0  0  0  0  0  0  0  0  0  0  0  0
    5.7310  -17.6010   18.9540 O   0  0  0  0  0  0  0  0  0  0  0  0
    3.4520  -17.9490   19.0660 N   0  0  0  0  0  0  0  0  0  0  0  0
    2.2620  -18.4700   19.7470 C   0  0  0  0  0  0  0  0  0  0  0  0
    1.3750  -17.3200   20.2690 C   0  0  0  0  0  0  0  0  0  0  0  0
    1.0260  -16.3420   19.2140 N   0  0  0  0  0  0  0  0  0  0  0  0
    0.2120  -15.2560   19.7840 C   0  0  0  0  0  0  0  0  0  0  0  0
   -1.2430  -15.3340   19.3990 C   0  0  0  0  0  0  0  0  0  0  0  0
   -2.1620  -14.3570   19.7920 C   0  0  0  0  0  0  0  0  0  0  0  0
   -3.4990  -14.4820   19.4290 C   0  0  0  0  0  0  0  0  0  0  0  0
   -3.8780  -15.5860   18.6840 C   0  0  0  0  0  0  0  0  0  0  0  0
   -3.0240  -16.5520   18.2860 N   0  0  0  0  0  0  0  0  0  0  0  0
   -1.7290  -16.4020   18.6490 C   0  0  0  0  0  0  0  0  0  0  0  0
    2.2690  -15.8210   18.5930 C   0  0  0  0  0  0  0  0  0  0  0  0
    3.1590  -16.9490   18.0400 C   0  0  0  0  0  0  0  0  0  0  0  0
    5.3020  -20.6430   19.8030 C   0  0  0  0  0  0  0  0  0  0  0  0
    5.5680  -21.6930   20.6890 C   0  0  0  0  0  0  0  0  0  0  0  0
    6.6960  -24.5580   23.5770 N   0  0  0  0  0  0  0  0  0  0  0  0
    6.3460  -25.8100   23.3790 C   0  0  0  0  0  0  0  0  0  0  0  0
    9.0620  -25.9160   24.5800 C   0  0  0  0  0  0  0  0  0  0  0  0
    9.9450  -25.8730   25.8260 C   0  0  0  0  0  0  0  0  0  0  0  0
  1  2  2  0
  2  3  1  0
  3  4  1  0
  4  5  1  0
  5  6  1  0
  5  7  1  0
  5  8  1  0
  2  9  1  0
  9 10  1  0
 10 11  1  0
 11 12  2  0
 12 13  1  0
 13 14  2  0
 14 15  1  0
 15 16  2  0
 16 17  1  0
 17 18  1  0
 18 19  2  0
 19 20  1  0
 20 21  1  0
 21 22  2  0
 22 23  1  0
 23 24  2  0
 24 25  1  0
 25 26  2  0
 25 27  1  0
 27 28  1  0
 28 29  1  0
 29 30  1  0
 30 31  1  0
 31 32  1  0
 32 33  2  0
 33 34  1  0
 34 35  2  0
 35 36  1  0
 36 37  2  0
 30 38  1  0
 38 39  1  0
 24 40  1  0
 40 41  2  0
 19 42  1  0
 42 43  2  0
 12 44  1  0
 44 45  1  0
 45  9  1  0
 43 13  1  0
 43 17  1  0
 41 21  1  0
 39 27  1  0
 37 32  1  0
M  END
$$$$
