YGIVJNKHBGEKKY-XLIONFOSSA-N
     RDKit          3D

 35 38  0  0  0  0  0  0  0  0999 V2000
  -23.6070   18.4220   21.2760 C   0  0  0  0  0  0  0  0  0  0  0  0
  -22.4560   19.1020   20.6190 N   0  0  0  0  0  0  0  0  0  0  0  0
  -22.8170   19.9280   19.3920 C   0  0  0  0  0  0  0  0  0  0  0  0
  -21.5340   20.3040   18.6270 C   0  0  0  0  0  0  0  0  0  0  0  0
  -23.6700   19.0970   18.4060 C   0  0  0  0  0  0  0  0  0  0  0  0
  -23.6030   21.1910   19.7720 C   0  0  0  0  0  0  0  0  0  0  0  0
  -21.3420   19.7750   21.7520 S   0  0  0  0  0  0  0  0  0  0  0  0
  -21.8340   19.4690   23.0810 O   0  0  0  0  0  0  0  0  0  0  0  0
  -21.0070   21.1310   21.3780 O   0  0  0  0  0  0  0  0  0  0  0  0
  -19.8780   18.8060   21.4620 C   0  0  0  0  0  0  0  0  0  0  0  0
  -19.1610   18.9410   20.2740 C   0  0  0  0  0  0  0  0  0  0  0  0
  -18.0140   18.1680   20.0710 C   0  0  0  0  0  0  0  0  0  0  0  0
  -17.5810   17.2420   21.0320 C   0  0  0  0  0  0  0  0  0  0  0  0
  -16.4150   16.4630   20.8900 N   0  0  0  0  0  0  0  0  0  0  0  0
  -15.1200   16.8050   20.6830 C   0  0  0  0  0  0  0  0  0  0  0  0
  -14.5590   18.0220   20.7490 N   0  0  0  0  0  0  0  0  0  0  0  0
  -13.2430   17.8240   20.5010 N   0  0  0  0  0  0  0  0  0  0  0  0
  -12.3330   18.9800   20.5650 C   0  0  1  0  0  0  0  0  0  0  0  0
  -12.1940   19.5630   19.1380 C   0  0  0  0  0  0  0  0  0  0  0  0
  -13.4840   19.6990   18.3400 C   0  0  0  0  0  0  0  0  0  0  0  0
  -14.2370   21.0230   18.5460 C   0  0  0  0  0  0  0  0  0  0  0  0
  -13.8340   21.7290   19.8310 C   0  0  0  0  0  0  0  0  0  0  0  0
  -14.0020   20.9060   21.1020 C   0  0  0  0  0  0  0  0  0  0  0  0
  -12.8240   20.0330   21.5910 C   0  0  2  0  0  0  0  0  0  0  0  0
  -11.7440   20.9710   21.9860 C   0  0  0  0  0  0  0  0  0  0  0  0
  -10.9180   21.7450   22.2440 N   0  0  0  0  0  0  0  0  0  0  0  0
  -12.9530   16.5150   20.2660 C   0  0  0  0  0  0  0  0  0  0  0  0
  -11.7040   15.9170   19.9970 C   0  0  0  0  0  0  0  0  0  0  0  0
  -11.7380   14.5780   19.8520 C   0  0  0  0  0  0  0  0  0  0  0  0
  -12.9150   13.8480   19.9610 N   0  0  0  0  0  0  0  0  0  0  0  0
  -14.1660   14.3980   20.2360 C   0  0  0  0  0  0  0  0  0  0  0  0
  -15.1820   13.7180   20.3370 O   0  0  0  0  0  0  0  0  0  0  0  0
  -14.1420   15.8330   20.3910 C   0  0  0  0  0  0  0  0  0  0  0  0
  -18.3280   17.1230   22.2180 C   0  0  0  0  0  0  0  0  0  0  0  0
  -19.4690   17.8970   22.4380 C   0  0  0  0  0  0  0  0  0  0  0  0
  1  2  1  0
  2  3  1  0
  3  4  1  0
  3  5  1  0
  3  6  1  0
  2  7  1  0
  7  8  2  0
  7  9  2  0
  7 10  1  0
 10 11  2  0
 11 12  1  0
 12 13  2  0
 13 14  1  0
 14 15  1  0
 15 16  2  0
 16 17  1  0
 18 17  1  6
 18 19  1  0
 19 20  1  0
 20 21  1  0
 21 22  1  0
 22 23  1  0
 23 24  1  0
 24 25  1  6
 25 26  3  0
 17 27  1  0
 27 28  1  0
 28 29  2  0
 29 30  1  0
 30 31  1  0
 31 32  2  0
 31 33  1  0
 13 34  1  0
 34 35  2  0
 35 10  1  0
 33 15  1  0
 24 18  1  0
 33 27  2  0
M  END
$$$$
