YGIVJNKHBGEKKY-XLIONFOSSA-N
     RDKit          3D

 35 38  0  0  0  0  0  0  0  0999 V2000
   -7.5300   19.0990   24.2020 C   0  0  0  0  0  0  0  0  0  0  0  0
   -6.7860   19.6920   23.0550 N   0  0  0  0  0  0  0  0  0  0  0  0
   -6.0190   20.9650   23.3820 C   0  0  0  0  0  0  0  0  0  0  0  0
   -5.9860   21.8800   22.1420 C   0  0  0  0  0  0  0  0  0  0  0  0
   -6.7430   21.7720   24.4840 C   0  0  0  0  0  0  0  0  0  0  0  0
   -4.5920   20.6590   23.8590 C   0  0  0  0  0  0  0  0  0  0  0  0
   -6.0070   18.5020   22.0780 S   0  0  0  0  0  0  0  0  0  0  0  0
   -5.4760   17.4860   22.9670 O   0  0  0  0  0  0  0  0  0  0  0  0
   -5.1650   19.1390   21.0910 O   0  0  0  0  0  0  0  0  0  0  0  0
   -7.3740   17.7980   21.1820 C   0  0  0  0  0  0  0  0  0  0  0  0
   -7.6450   16.4320   21.2580 C   0  0  0  0  0  0  0  0  0  0  0  0
   -8.7250   15.9050   20.5450 C   0  0  0  0  0  0  0  0  0  0  0  0
   -9.5310   16.7190   19.7360 C   0  0  0  0  0  0  0  0  0  0  0  0
  -10.6500   16.2430   19.0230 N   0  0  0  0  0  0  0  0  0  0  0  0
  -11.8940   15.8890   19.4270 C   0  0  0  0  0  0  0  0  0  0  0  0
  -12.9390   16.6850   19.7010 N   0  0  0  0  0  0  0  0  0  0  0  0
  -13.9530   15.8470   20.0210 N   0  0  0  0  0  0  0  0  0  0  0  0
  -15.2760   16.4230   20.3160 C   0  0  1  0  0  0  0  0  0  0  0  0
  -15.1520   17.2810   21.5980 C   0  0  0  0  0  0  0  0  0  0  0  0
  -15.1020   18.7890   21.3940 C   0  0  0  0  0  0  0  0  0  0  0  0
  -16.4790   19.4540   21.2650 C   0  0  0  0  0  0  0  0  0  0  0  0
  -17.5090   18.4710   20.7300 C   0  0  0  0  0  0  0  0  0  0  0  0
  -17.1990   17.8940   19.3540 C   0  0  0  0  0  0  0  0  0  0  0  0
  -15.8240   17.2320   19.1120 C   0  0  2  0  0  0  0  0  0  0  0  0
  -15.9720   16.3900   17.8980 C   0  0  0  0  0  0  0  0  0  0  0  0
  -16.1520   15.7190   16.9680 N   0  0  0  0  0  0  0  0  0  0  0  0
  -13.5790   14.5390   19.9690 C   0  0  0  0  0  0  0  0  0  0  0  0
  -14.3530   13.3840   20.2090 C   0  0  0  0  0  0  0  0  0  0  0  0
  -13.6990   12.2190   20.0330 C   0  0  0  0  0  0  0  0  0  0  0  0
  -12.3660   12.1660   19.6440 N   0  0  0  0  0  0  0  0  0  0  0  0
  -11.5700   13.2820   19.3880 C   0  0  0  0  0  0  0  0  0  0  0  0
  -10.3990   13.1940   19.0340 O   0  0  0  0  0  0  0  0  0  0  0  0
  -12.2600   14.5360   19.5750 C   0  0  0  0  0  0  0  0  0  0  0  0
   -9.2300   18.0920   19.6730 C   0  0  0  0  0  0  0  0  0  0  0  0
   -8.1610   18.6340   20.3890 C   0  0  0  0  0  0  0  0  0  0  0  0
  1  2  1  0
  2  3  1  0
  3  4  1  0
  3  5  1  0
  3  6  1  0
  2  7  1  0
  7  8  2  0
  7  9  2  0
  7 10  1  0
 10 11  2  0
 11 12  1  0
 12 13  2  0
 13 14  1  0
 14 15  1  0
 15 16  2  0
 16 17  1  0
 18 17  1  6
 18 19  1  0
 19 20  1  0
 20 21  1  0
 21 22  1  0
 22 23  1  0
 23 24  1  0
 24 25  1  6
 25 26  3  0
 17 27  1  0
 27 28  1  0
 28 29  2  0
 29 30  1  0
 30 31  1  0
 31 32  2  0
 31 33  1  0
 13 34  1  0
 34 35  2  0
 35 10  1  0
 33 15  1  0
 24 18  1  0
 33 27  2  0
M  END
$$$$
