BONGLINICVKANL-UHFFFAOYSA-N
     RDKit          3D

 32 35  0  0  0  0  0  0  0  0999 V2000
   49.8010  -36.2560  107.6480 C   0  0  0  0  0  0  0  0  0  0  0  0
   49.8200  -37.6750  107.5600 O   0  0  0  0  0  0  0  0  0  0  0  0
   48.7170  -38.3370  108.0250 C   0  0  0  0  0  0  0  0  0  0  0  0
   47.5240  -37.7510  108.4460 C   0  0  0  0  0  0  0  0  0  0  0  0
   46.4680  -38.5500  108.9000 C   0  0  0  0  0  0  0  0  0  0  0  0
   46.5900  -39.9460  108.9350 C   0  0  0  0  0  0  0  0  0  0  0  0
   45.4480  -40.7990  109.4310 C   0  0  0  0  0  0  0  0  0  0  0  0
   44.9890  -41.6020  108.3470 O   0  0  0  0  0  0  0  0  0  0  0  0
   44.1290  -41.0190  107.4600 C   0  0  0  0  0  0  0  0  0  0  0  0
   44.3980  -41.2980  106.1190 C   0  0  0  0  0  0  0  0  0  0  0  0
   43.6020  -40.7640  105.1030 C   0  0  0  0  0  0  0  0  0  0  0  0
   42.5150  -39.9400  105.4160 C   0  0  0  0  0  0  0  0  0  0  0  0
   41.6660  -39.3390  104.3230 C   0  0  0  0  0  0  0  0  0  0  0  0
   39.9500  -39.9610  104.3320 S   0  0  0  0  0  0  0  0  0  0  0  0
   39.2080  -38.8190  103.1880 C   0  0  0  0  0  0  0  0  0  0  0  0
   39.8880  -38.4510  102.0210 C   0  0  0  0  0  0  0  0  0  0  0  0
   39.3350  -37.5310  101.1100 C   0  0  0  0  0  0  0  0  0  0  0  0
   38.0830  -36.9590  101.3460 C   0  0  0  0  0  0  0  0  0  0  0  0
   37.4500  -36.0460  100.5560 O   0  0  0  0  0  0  0  0  0  0  0  0
   37.4920  -34.6880  100.9690 C   0  0  0  0  0  0  0  0  0  0  0  0
   38.6380  -33.9660  100.2860 C   0  0  0  0  0  0  0  0  0  0  0  0
   38.7520  -33.6700   99.1090 O   0  0  0  0  0  0  0  0  0  0  0  0
   39.6210  -33.6410  101.1580 O   0  0  0  0  0  0  0  0  0  0  0  0
   37.4040  -37.3470  102.4940 C   0  0  0  0  0  0  0  0  0  0  0  0
   37.9520  -38.2690  103.4020 C   0  0  0  0  0  0  0  0  0  0  0  0
   37.0260  -38.4610  104.5680 C   0  0  0  0  0  0  0  0  0  0  0  0
   35.7050  -37.9290  104.0010 C   0  0  0  0  0  0  0  0  0  0  0  0
   36.0740  -36.8500  102.9780 C   0  0  0  0  0  0  0  0  0  0  0  0
   42.2470  -39.6620  106.7640 C   0  0  0  0  0  0  0  0  0  0  0  0
   43.0470  -40.1990  107.7790 C   0  0  0  0  0  0  0  0  0  0  0  0
   47.7950  -40.5280  108.5230 C   0  0  0  0  0  0  0  0  0  0  0  0
   48.8460  -39.7270  108.0710 C   0  0  0  0  0  0  0  0  0  0  0  0
  1  2  1  0
  2  3  1  0
  3  4  2  0
  4  5  1  0
  5  6  2  0
  6  7  1  0
  7  8  1  0
  8  9  1  0
  9 10  2  0
 10 11  1  0
 11 12  2  0
 12 13  1  0
 13 14  1  0
 14 15  1  0
 15 16  2  0
 16 17  1  0
 17 18  2  0
 18 19  1  0
 19 20  1  0
 20 21  1  0
 21 22  2  0
 21 23  1  0
 18 24  1  0
 24 25  2  0
 25 26  1  0
 26 27  1  0
 27 28  1  0
 12 29  1  0
 29 30  2  0
  6 31  1  0
 31 32  2  0
 32  3  1  0
 30  9  1  0
 25 15  1  0
 28 24  1  0
M  END
$$$$
