
 OpenBabel09052612093D

 32 35  0  0  0  0  0  0  0  0999 V2000
   13.5740   39.2610  122.6190 O   0  0  0  0  0  0  0  0  0  0  0  0
   13.7210   40.4740  122.0250 C   0  0  0  0  0  0  0  0  0  0  0  0
   13.4910   40.7130  120.8500 O   0  0  0  0  0  0  0  0  0  0  0  0
   14.1840   41.4900  123.0100 C   0  0  0  0  0  0  0  0  0  0  0  0
   15.1230   43.3330  124.9140 C   0  0  0  0  0  0  0  0  0  0  0  0
   13.8640   43.5000  124.3110 C   0  0  0  0  0  0  0  0  0  0  0  0
   15.9270   42.2280  124.5520 C   0  0  0  0  0  0  0  0  0  0  0  0
   13.3960   42.5860  123.3680 C   0  0  0  0  0  0  0  0  0  0  0  0
   15.4440   41.3160  123.6050 C   0  0  0  0  0  0  0  0  0  0  0  0
   15.5670   44.3580  125.9240 C   0  0  0  0  0  0  0  0  0  0  0  0
   17.1860   42.0820  125.1750 N   0  0  0  0  0  0  0  0  0  0  0  0
   17.6320   41.0770  126.0170 C   0  0  0  0  0  0  0  0  0  0  0  0
   17.0040   40.0740  126.3330 O   0  0  0  0  0  0  0  0  0  0  0  0
   17.8780   42.8020  125.0050 H   0  0  0  0  0  0  0  0  0  0  0  0
   18.9780   41.3260  126.5060 C   0  0  0  0  0  0  0  0  0  0  0  0
   20.0980   41.8350  125.8720 C   0  0  0  0  0  0  0  0  0  0  0  0
   19.2870   41.0370  127.8110 O   0  0  0  0  0  0  0  0  0  0  0  0
   21.1390   41.8470  126.8290 C   0  0  0  0  0  0  0  0  0  0  0  0
   20.5940   41.3580  127.9930 C   0  0  0  0  0  0  0  0  0  0  0  0
   14.5310   38.2900  122.1880 C   0  0  0  0  0  0  0  0  0  0  0  0
   15.2000   37.5490  123.3510 C   0  0  0  0  0  0  0  0  0  0  0  0
   14.5550   36.7660  124.0540 O   0  0  0  0  0  0  0  0  0  0  0  0
   16.6340   37.7660  123.5690 C   0  0  0  0  0  0  0  0  0  0  0  0
   17.4040   38.7820  123.0230 C   0  0  0  0  0  0  0  0  0  0  0  0
   17.5190   36.9770  124.3810 C   0  0  0  0  0  0  0  0  0  0  0  0
   18.6900   38.6410  123.4740 N   0  0  0  0  0  0  0  0  0  0  0  0
   17.3560   35.8290  125.1870 C   0  0  0  0  0  0  0  0  0  0  0  0
   18.7910   37.5460  124.2980 C   0  0  0  0  0  0  0  0  0  0  0  0
   18.4540   35.2990  125.8740 C   0  0  0  0  0  0  0  0  0  0  0  0
   19.9020   37.0270  124.9740 C   0  0  0  0  0  0  0  0  0  0  0  0
   19.7090   35.8930  125.7690 C   0  0  0  0  0  0  0  0  0  0  0  0
   19.4620   39.2510  123.2390 H   0  0  0  0  0  0  0  0  0  0  0  0
  2  1  1  0  0  0  0
  2  4  1  0  0  0  0
  3  2  2  0  0  0  0
  4  8  2  0  0  0  0
  4  9  1  0  0  0  0
  5 10  1  0  0  0  0
  6  5  2  0  0  0  0
  7  5  1  0  0  0  0
  7 11  1  0  0  0  0
  8  6  1  0  0  0  0
  9  7  2  0  0  0  0
 11 12  1  0  0  0  0
 12 13  2  0  0  0  0
 12 15  1  0  0  0  0
 14 11  1  0  0  0  0
 15 17  1  0  0  0  0
 16 15  2  0  0  0  0
 16 18  1  0  0  0  0
 17 19  1  0  0  0  0
 18 19  2  0  0  0  0
 20  1  1  0  0  0  0
 20 21  1  0  0  0  0
 21 23  1  0  0  0  0
 21 22  2  0  0  0  0
 23 25  1  0  0  0  0
 24 26  1  0  0  0  0
 24 23  2  0  0  0  0
 25 27  1  0  0  0  0
 26 28  1  0  0  0  0
 27 29  2  0  0  0  0
 28 25  2  0  0  0  0
 28 30  1  0  0  0  0
 30 31  2  0  0  0  0
 31 29  1  0  0  0  0
 32 26  1  0  0  0  0
M  END
>  <minimizedAffinity>
-8.39925861

>  <CNNscore>
0.606752396

>  <CNNaffinity>
5.64383268

$$$$

 OpenBabel09052612093D

 32 35  0  0  0  0  0  0  0  0999 V2000
   14.6800   38.1080  125.1100 O   0  0  0  0  0  0  0  0  0  0  0  0
   14.8420   36.7620  125.1960 C   0  0  0  0  0  0  0  0  0  0  0  0
   13.9400   35.9540  125.3490 O   0  0  0  0  0  0  0  0  0  0  0  0
   16.2790   36.3950  125.0600 C   0  0  0  0  0  0  0  0  0  0  0  0
   18.9870   35.6580  124.8990 C   0  0  0  0  0  0  0  0  0  0  0  0
   18.4870   36.7310  124.1400 C   0  0  0  0  0  0  0  0  0  0  0  0
   18.1140   34.9390  125.7470 C   0  0  0  0  0  0  0  0  0  0  0  0
   17.1450   37.0980  124.2190 C   0  0  0  0  0  0  0  0  0  0  0  0
   16.7680   35.3200  125.8190 C   0  0  0  0  0  0  0  0  0  0  0  0
   20.4480   35.3150  124.7650 C   0  0  0  0  0  0  0  0  0  0  0  0
   18.6430   33.8680  126.5010 N   0  0  0  0  0  0  0  0  0  0  0  0
   18.9030   32.5670  126.1070 C   0  0  0  0  0  0  0  0  0  0  0  0
   18.7650   32.1180  124.9750 O   0  0  0  0  0  0  0  0  0  0  0  0
   18.8680   34.0480  127.4720 H   0  0  0  0  0  0  0  0  0  0  0  0
   19.3860   31.7460  127.2050 C   0  0  0  0  0  0  0  0  0  0  0  0
   19.7950   30.4240  127.2440 C   0  0  0  0  0  0  0  0  0  0  0  0
   19.4900   32.2900  128.4600 O   0  0  0  0  0  0  0  0  0  0  0  0
   20.1530   30.1460  128.5840 C   0  0  0  0  0  0  0  0  0  0  0  0
   19.9550   31.3150  129.2820 C   0  0  0  0  0  0  0  0  0  0  0  0
   15.7040   38.8530  125.7730 C   0  0  0  0  0  0  0  0  0  0  0  0
   15.9300   40.2400  125.1580 C   0  0  0  0  0  0  0  0  0  0  0  0
   14.9750   40.9450  124.8240 O   0  0  0  0  0  0  0  0  0  0  0  0
   17.3120   40.7150  125.0250 C   0  0  0  0  0  0  0  0  0  0  0  0
   18.0160   40.8730  123.8400 C   0  0  0  0  0  0  0  0  0  0  0  0
   18.2020   41.1050  126.0830 C   0  0  0  0  0  0  0  0  0  0  0  0
   19.2680   41.3410  124.1400 N   0  0  0  0  0  0  0  0  0  0  0  0
   18.0920   41.1750  127.4890 C   0  0  0  0  0  0  0  0  0  0  0  0
   19.4120   41.4860  125.4990 C   0  0  0  0  0  0  0  0  0  0  0  0
   19.1780   41.6190  128.2510 C   0  0  0  0  0  0  0  0  0  0  0  0
   20.5100   41.9300  126.2460 C   0  0  0  0  0  0  0  0  0  0  0  0
   20.3690   41.9940  127.6350 C   0  0  0  0  0  0  0  0  0  0  0  0
   19.9900   41.5530  123.4650 H   0  0  0  0  0  0  0  0  0  0  0  0
  1  2  1  0  0  0  0
  1 20  1  0  0  0  0
  2  3  2  0  0  0  0
  4  2  1  0  0  0  0
  4  9  1  0  0  0  0
  5  7  1  0  0  0  0
  6  8  1  0  0  0  0
  6  5  2  0  0  0  0
  7  9  2  0  0  0  0
  7 11  1  0  0  0  0
  8  4  2  0  0  0  0
 10  5  1  0  0  0  0
 11 14  1  0  0  0  0
 12 11  1  0  0  0  0
 12 15  1  0  0  0  0
 13 12  2  0  0  0  0
 15 16  2  0  0  0  0
 15 17  1  0  0  0  0
 16 18  1  0  0  0  0
 17 19  1  0  0  0  0
 18 19  2  0  0  0  0
 21 20  1  0  0  0  0
 22 21  2  0  0  0  0
 23 21  1  0  0  0  0
 23 25  1  0  0  0  0
 24 26  1  0  0  0  0
 24 23  2  0  0  0  0
 25 27  1  0  0  0  0
 26 28  1  0  0  0  0
 27 29  2  0  0  0  0
 28 25  2  0  0  0  0
 28 30  1  0  0  0  0
 30 31  2  0  0  0  0
 31 29  1  0  0  0  0
 32 26  1  0  0  0  0
M  END
>  <minimizedAffinity>
-8.84205055

>  <CNNscore>
0.373955309

>  <CNNaffinity>
6.35896158

$$$$

 OpenBabel09052612093D

 32 35  0  0  0  0  0  0  0  0999 V2000
   19.0560   35.1470  125.1370 O   0  0  0  0  0  0  0  0  0  0  0  0
   18.2580   35.9170  124.3510 C   0  0  0  0  0  0  0  0  0  0  0  0
   17.4150   35.4920  123.5770 O   0  0  0  0  0  0  0  0  0  0  0  0
   18.5360   37.3620  124.5750 C   0  0  0  0  0  0  0  0  0  0  0  0
   19.0220   40.1120  124.9000 C   0  0  0  0  0  0  0  0  0  0  0  0
   19.7550   39.1610  125.6310 C   0  0  0  0  0  0  0  0  0  0  0  0
   18.0250   39.6780  123.9960 C   0  0  0  0  0  0  0  0  0  0  0  0
   19.5160   37.7970  125.4710 C   0  0  0  0  0  0  0  0  0  0  0  0
   17.7970   38.3050  123.8420 C   0  0  0  0  0  0  0  0  0  0  0  0
   19.3320   41.5690  125.1220 C   0  0  0  0  0  0  0  0  0  0  0  0
   17.3070   40.6540  123.2710 N   0  0  0  0  0  0  0  0  0  0  0  0
   16.1270   41.2970  123.6050 C   0  0  0  0  0  0  0  0  0  0  0  0
   15.5080   41.1640  124.6540 O   0  0  0  0  0  0  0  0  0  0  0  0
   17.6820   40.9400  122.3750 H   0  0  0  0  0  0  0  0  0  0  0  0
   15.6730   42.1930  122.5540 C   0  0  0  0  0  0  0  0  0  0  0  0
   14.5120   42.1990  121.8000 C   0  0  0  0  0  0  0  0  0  0  0  0
   16.4670   43.2460  122.1740 O   0  0  0  0  0  0  0  0  0  0  0  0
   14.6070   43.2980  120.9140 C   0  0  0  0  0  0  0  0  0  0  0  0
   15.8110   43.9050  121.1850 C   0  0  0  0  0  0  0  0  0  0  0  0
   20.0910   34.4720  124.4180 C   0  0  0  0  0  0  0  0  0  0  0  0
   19.8170   32.9750  124.2360 C   0  0  0  0  0  0  0  0  0  0  0  0
   19.2790   32.5530  123.2100 O   0  0  0  0  0  0  0  0  0  0  0  0
   20.2560   32.0630  125.2980 C   0  0  0  0  0  0  0  0  0  0  0  0
   21.4380   31.3380  125.3230 C   0  0  0  0  0  0  0  0  0  0  0  0
   19.5570   31.7420  126.5120 C   0  0  0  0  0  0  0  0  0  0  0  0
   21.4770   30.6130  126.4850 N   0  0  0  0  0  0  0  0  0  0  0  0
   18.3250   32.1420  127.0750 C   0  0  0  0  0  0  0  0  0  0  0  0
   20.3420   30.8350  127.2250 C   0  0  0  0  0  0  0  0  0  0  0  0
   17.9290   31.6310  128.3160 C   0  0  0  0  0  0  0  0  0  0  0  0
   19.9590   30.3100  128.4660 C   0  0  0  0  0  0  0  0  0  0  0  0
   18.7380   30.7290  129.0020 C   0  0  0  0  0  0  0  0  0  0  0  0
   22.2310   30.0010  126.7660 H   0  0  0  0  0  0  0  0  0  0  0  0
  2  4  1  0  0  0  0
  2  1  1  0  0  0  0
  3  2  2  0  0  0  0
  4  8  1  0  0  0  0
  5 10  1  0  0  0  0
  5  6  1  0  0  0  0
  7  5  2  0  0  0  0
  8  6  2  0  0  0  0
  9  7  1  0  0  0  0
  9  4  2  0  0  0  0
 11 12  1  0  0  0  0
 11  7  1  0  0  0  0
 12 13  2  0  0  0  0
 14 11  1  0  0  0  0
 15 12  1  0  0  0  0
 16 15  2  0  0  0  0
 17 15  1  0  0  0  0
 18 19  2  0  0  0  0
 18 16  1  0  0  0  0
 19 17  1  0  0  0  0
 20  1  1  0  0  0  0
 21 20  1  0  0  0  0
 21 23  1  0  0  0  0
 22 21  2  0  0  0  0
 23 24  2  0  0  0  0
 23 25  1  0  0  0  0
 24 26  1  0  0  0  0
 25 27  2  0  0  0  0
 25 28  1  0  0  0  0
 26 32  1  0  0  0  0
 26 28  1  0  0  0  0
 27 29  1  0  0  0  0
 28 30  2  0  0  0  0
 29 31  2  0  0  0  0
 30 31  1  0  0  0  0
M  END
>  <minimizedAffinity>
-9.04747486

>  <CNNscore>
0.298452646

>  <CNNaffinity>
5.64444399

$$$$

 OpenBabel09052612093D

 32 35  0  0  0  0  0  0  0  0999 V2000
   16.0880   34.8530  125.7680 O   0  0  0  0  0  0  0  0  0  0  0  0
   15.2630   35.5950  126.5520 C   0  0  0  0  0  0  0  0  0  0  0  0
   15.1260   35.4570  127.7580 O   0  0  0  0  0  0  0  0  0  0  0  0
   14.5520   36.6230  125.7420 C   0  0  0  0  0  0  0  0  0  0  0  0
   13.2550   38.6390  124.2740 C   0  0  0  0  0  0  0  0  0  0  0  0
   12.7240   37.3380  124.3350 C   0  0  0  0  0  0  0  0  0  0  0  0
   14.4590   38.9310  124.9540 C   0  0  0  0  0  0  0  0  0  0  0  0
   13.3650   36.3380  125.0640 C   0  0  0  0  0  0  0  0  0  0  0  0
   15.0920   37.9180  125.6850 C   0  0  0  0  0  0  0  0  0  0  0  0
   12.5110   39.6710  123.4680 C   0  0  0  0  0  0  0  0  0  0  0  0
   14.9690   40.2460  124.8800 N   0  0  0  0  0  0  0  0  0  0  0  0
   16.2300   40.7140  125.2070 C   0  0  0  0  0  0  0  0  0  0  0  0
   17.1760   40.0290  125.5800 O   0  0  0  0  0  0  0  0  0  0  0  0
   14.3440   40.9710  124.5480 H   0  0  0  0  0  0  0  0  0  0  0  0
   16.3400   42.1550  125.0510 C   0  0  0  0  0  0  0  0  0  0  0  0
   16.9700   43.1100  125.8300 C   0  0  0  0  0  0  0  0  0  0  0  0
   15.7470   42.7650  123.9740 O   0  0  0  0  0  0  0  0  0  0  0  0
   16.7430   44.3590  125.2070 C   0  0  0  0  0  0  0  0  0  0  0  0
   15.9990   44.0950  124.0800 C   0  0  0  0  0  0  0  0  0  0  0  0
   17.4220   34.7540  126.2720 C   0  0  0  0  0  0  0  0  0  0  0  0
   18.4490   34.4070  125.1870 C   0  0  0  0  0  0  0  0  0  0  0  0
   18.5590   35.1070  124.1770 O   0  0  0  0  0  0  0  0  0  0  0  0
   19.3210   33.2490  125.4120 C   0  0  0  0  0  0  0  0  0  0  0  0
   20.3820   32.8510  124.6120 C   0  0  0  0  0  0  0  0  0  0  0  0
   19.2500   32.3050  126.4930 C   0  0  0  0  0  0  0  0  0  0  0  0
   20.9450   31.7310  125.1650 N   0  0  0  0  0  0  0  0  0  0  0  0
   18.4120   32.1590  127.6200 C   0  0  0  0  0  0  0  0  0  0  0  0
   20.2720   31.3720  126.3080 C   0  0  0  0  0  0  0  0  0  0  0  0
   18.6230   31.1000  128.5110 C   0  0  0  0  0  0  0  0  0  0  0  0
   20.4960   30.3050  127.1870 C   0  0  0  0  0  0  0  0  0  0  0  0
   19.6530   30.1890  128.2970 C   0  0  0  0  0  0  0  0  0  0  0  0
   21.7420   31.2330  124.7920 H   0  0  0  0  0  0  0  0  0  0  0  0
  1 20  1  0  0  0  0
  1  2  1  0  0  0  0
  2  3  2  0  0  0  0
  4  2  1  0  0  0  0
  5  6  2  0  0  0  0
  5  7  1  0  0  0  0
  6  8  1  0  0  0  0
  7  9  2  0  0  0  0
  8  4  2  0  0  0  0
  9  4  1  0  0  0  0
 10  5  1  0  0  0  0
 11  7  1  0  0  0  0
 11 12  1  0  0  0  0
 12 13  2  0  0  0  0
 14 11  1  0  0  0  0
 15 12  1  0  0  0  0
 15 16  2  0  0  0  0
 17 19  1  0  0  0  0
 17 15  1  0  0  0  0
 18 16  1  0  0  0  0
 19 18  2  0  0  0  0
 21 23  1  0  0  0  0
 21 20  1  0  0  0  0
 22 21  2  0  0  0  0
 23 25  1  0  0  0  0
 24 26  1  0  0  0  0
 24 23  2  0  0  0  0
 25 27  1  0  0  0  0
 26 28  1  0  0  0  0
 27 29  2  0  0  0  0
 28 25  2  0  0  0  0
 28 30  1  0  0  0  0
 30 31  2  0  0  0  0
 31 29  1  0  0  0  0
 32 26  1  0  0  0  0
M  END
>  <minimizedAffinity>
-8.94361401

>  <CNNscore>
0.267425776

>  <CNNaffinity>
5.85471344

$$$$

 OpenBabel09052612093D

 32 35  0  0  0  0  0  0  0  0999 V2000
   14.9740   35.3370  125.5720 O   0  0  0  0  0  0  0  0  0  0  0  0
   14.2050   36.2350  126.2410 C   0  0  0  0  0  0  0  0  0  0  0  0
   13.4830   35.9720  127.1900 O   0  0  0  0  0  0  0  0  0  0  0  0
   14.3720   37.6000  125.6700 C   0  0  0  0  0  0  0  0  0  0  0  0
   14.5920   40.1670  124.5450 C   0  0  0  0  0  0  0  0  0  0  0  0
   15.7400   39.4410  124.9110 C   0  0  0  0  0  0  0  0  0  0  0  0
   13.3140   39.6000  124.7530 C   0  0  0  0  0  0  0  0  0  0  0  0
   15.6320   38.1670  125.4680 C   0  0  0  0  0  0  0  0  0  0  0  0
   13.2200   38.3190  125.3110 C   0  0  0  0  0  0  0  0  0  0  0  0
   14.7810   41.5380  123.9490 C   0  0  0  0  0  0  0  0  0  0  0  0
   12.1790   40.3490  124.3740 N   0  0  0  0  0  0  0  0  0  0  0  0
   11.6160   40.5060  123.1180 C   0  0  0  0  0  0  0  0  0  0  0  0
   11.9900   39.9560  122.0890 O   0  0  0  0  0  0  0  0  0  0  0  0
   11.6900   40.8570  125.1010 H   0  0  0  0  0  0  0  0  0  0  0  0
   10.4830   41.4170  123.1330 C   0  0  0  0  0  0  0  0  0  0  0  0
   10.3150   42.6720  122.5730 C   0  0  0  0  0  0  0  0  0  0  0  0
    9.3360   41.0570  123.7940 O   0  0  0  0  0  0  0  0  0  0  0  0
    9.0110   43.1010  122.9170 C   0  0  0  0  0  0  0  0  0  0  0  0
    8.4550   42.0810  123.6540 C   0  0  0  0  0  0  0  0  0  0  0  0
   16.3780   35.5370  125.7520 C   0  0  0  0  0  0  0  0  0  0  0  0
   16.9810   34.6250  126.8260 C   0  0  0  0  0  0  0  0  0  0  0  0
   16.4810   34.5600  127.9520 O   0  0  0  0  0  0  0  0  0  0  0  0
   18.1380   33.8010  126.4570 C   0  0  0  0  0  0  0  0  0  0  0  0
   19.0460   34.0670  125.4430 C   0  0  0  0  0  0  0  0  0  0  0  0
   18.5570   32.5690  127.0660 C   0  0  0  0  0  0  0  0  0  0  0  0
   19.9790   33.0640  125.4240 N   0  0  0  0  0  0  0  0  0  0  0  0
   18.0690   31.7800  128.1300 C   0  0  0  0  0  0  0  0  0  0  0  0
   19.7030   32.1350  126.3970 C   0  0  0  0  0  0  0  0  0  0  0  0
   18.7370   30.6020  128.4860 C   0  0  0  0  0  0  0  0  0  0  0  0
   20.3810   30.9580  126.7370 C   0  0  0  0  0  0  0  0  0  0  0  0
   19.8790   30.2000  127.7990 C   0  0  0  0  0  0  0  0  0  0  0  0
   20.7630   33.0080  124.7880 H   0  0  0  0  0  0  0  0  0  0  0  0
  1 20  1  0  0  0  0
  1  2  1  0  0  0  0
  2  3  2  0  0  0  0
  4  2  1  0  0  0  0
  5  7  2  0  0  0  0
  5  6  1  0  0  0  0
  6  8  2  0  0  0  0
  7  9  1  0  0  0  0
  8  4  1  0  0  0  0
  9  4  2  0  0  0  0
 10  5  1  0  0  0  0
 11  7  1  0  0  0  0
 11 14  1  0  0  0  0
 12 15  1  0  0  0  0
 12 11  1  0  0  0  0
 13 12  2  0  0  0  0
 15 17  1  0  0  0  0
 16 18  1  0  0  0  0
 16 15  2  0  0  0  0
 18 19  2  0  0  0  0
 19 17  1  0  0  0  0
 20 21  1  0  0  0  0
 21 22  2  0  0  0  0
 23 21  1  0  0  0  0
 23 25  1  0  0  0  0
 24 23  2  0  0  0  0
 25 27  1  0  0  0  0
 26 24  1  0  0  0  0
 26 28  1  0  0  0  0
 27 29  2  0  0  0  0
 28 30  1  0  0  0  0
 28 25  2  0  0  0  0
 30 31  2  0  0  0  0
 31 29  1  0  0  0  0
 32 26  1  0  0  0  0
M  END
>  <minimizedAffinity>
-9.24665165

>  <CNNscore>
0.25254792

>  <CNNaffinity>
5.23552561

$$$$

 OpenBabel09052612093D

 32 35  0  0  0  0  0  0  0  0999 V2000
   13.6390   39.3920  124.2280 O   0  0  0  0  0  0  0  0  0  0  0  0
   13.9360   38.0910  124.4840 C   0  0  0  0  0  0  0  0  0  0  0  0
   13.1230   37.1810  124.5330 O   0  0  0  0  0  0  0  0  0  0  0  0
   15.4020   37.9150  124.6810 C   0  0  0  0  0  0  0  0  0  0  0  0
   18.1470   37.5000  125.1180 C   0  0  0  0  0  0  0  0  0  0  0  0
   17.6640   38.7590  124.7190 C   0  0  0  0  0  0  0  0  0  0  0  0
   17.2410   36.4300  125.2930 C   0  0  0  0  0  0  0  0  0  0  0  0
   16.3030   38.9670  124.5030 C   0  0  0  0  0  0  0  0  0  0  0  0
   15.8750   36.6530  125.0760 C   0  0  0  0  0  0  0  0  0  0  0  0
   19.6300   37.3460  125.3330 C   0  0  0  0  0  0  0  0  0  0  0  0
   17.7510   35.1770  125.6980 N   0  0  0  0  0  0  0  0  0  0  0  0
   17.4440   34.4310  126.8230 C   0  0  0  0  0  0  0  0  0  0  0  0
   16.6020   34.7160  127.6660 O   0  0  0  0  0  0  0  0  0  0  0  0
   18.4460   34.7420  125.1030 H   0  0  0  0  0  0  0  0  0  0  0  0
   18.2410   33.2180  126.9130 C   0  0  0  0  0  0  0  0  0  0  0  0
   19.3570   32.9150  127.6730 C   0  0  0  0  0  0  0  0  0  0  0  0
   17.9030   32.1310  126.1470 O   0  0  0  0  0  0  0  0  0  0  0  0
   19.7240   31.5880  127.3480 C   0  0  0  0  0  0  0  0  0  0  0  0
   18.8050   31.1530  126.4210 C   0  0  0  0  0  0  0  0  0  0  0  0
   12.3270   39.7750  124.6460 C   0  0  0  0  0  0  0  0  0  0  0  0
   11.5840   40.6120  123.5980 C   0  0  0  0  0  0  0  0  0  0  0  0
   11.5370   40.2500  122.4190 O   0  0  0  0  0  0  0  0  0  0  0  0
   10.8970   41.8260  124.0510 C   0  0  0  0  0  0  0  0  0  0  0  0
   11.4990   42.9920  124.5000 C   0  0  0  0  0  0  0  0  0  0  0  0
    9.4790   42.0480  124.1200 C   0  0  0  0  0  0  0  0  0  0  0  0
   10.5160   43.8900  124.8230 N   0  0  0  0  0  0  0  0  0  0  0  0
    8.3440   41.2690  123.8070 C   0  0  0  0  0  0  0  0  0  0  0  0
    9.2760   43.3400  124.6070 C   0  0  0  0  0  0  0  0  0  0  0  0
    7.0630   41.8020  123.9890 C   0  0  0  0  0  0  0  0  0  0  0  0
    8.0020   43.8890  124.7980 C   0  0  0  0  0  0  0  0  0  0  0  0
    6.8960   43.0960  124.4750 C   0  0  0  0  0  0  0  0  0  0  0  0
   10.6720   44.8270  125.1710 H   0  0  0  0  0  0  0  0  0  0  0  0
  1  2  1  0  0  0  0
  1 20  1  0  0  0  0
  2  3  2  0  0  0  0
  2  4  1  0  0  0  0
  4  9  1  0  0  0  0
  5  7  1  0  0  0  0
  5 10  1  0  0  0  0
  6  5  2  0  0  0  0
  7 11  1  0  0  0  0
  8  4  2  0  0  0  0
  8  6  1  0  0  0  0
  9  7  2  0  0  0  0
 11 12  1  0  0  0  0
 12 15  1  0  0  0  0
 12 13  2  0  0  0  0
 14 11  1  0  0  0  0
 15 16  2  0  0  0  0
 17 19  1  0  0  0  0
 17 15  1  0  0  0  0
 18 16  1  0  0  0  0
 19 18  2  0  0  0  0
 21 23  1  0  0  0  0
 21 20  1  0  0  0  0
 22 21  2  0  0  0  0
 23 25  1  0  0  0  0
 23 24  2  0  0  0  0
 24 26  1  0  0  0  0
 25 28  1  0  0  0  0
 26 32  1  0  0  0  0
 27 29  1  0  0  0  0
 27 25  2  0  0  0  0
 28 30  2  0  0  0  0
 28 26  1  0  0  0  0
 29 31  2  0  0  0  0
 31 30  1  0  0  0  0
M  END
>  <minimizedAffinity>
-8.96303082

>  <CNNscore>
0.250201225

>  <CNNaffinity>
5.08046484

$$$$

 OpenBabel09052612093D

 32 35  0  0  0  0  0  0  0  0999 V2000
   14.3630   37.7370  126.1250 O   0  0  0  0  0  0  0  0  0  0  0  0
   14.4670   36.6020  125.3850 C   0  0  0  0  0  0  0  0  0  0  0  0
   13.5290   35.9980  124.8890 O   0  0  0  0  0  0  0  0  0  0  0  0
   15.8930   36.1980  125.2390 C   0  0  0  0  0  0  0  0  0  0  0  0
   18.5830   35.4010  125.0660 C   0  0  0  0  0  0  0  0  0  0  0  0
   18.0740   36.4020  124.2210 C   0  0  0  0  0  0  0  0  0  0  0  0
   17.7280   34.7840  126.0090 C   0  0  0  0  0  0  0  0  0  0  0  0
   16.7400   36.8000  124.3060 C   0  0  0  0  0  0  0  0  0  0  0  0
   16.3920   35.1940  126.0860 C   0  0  0  0  0  0  0  0  0  0  0  0
   20.0330   35.0190  124.9200 C   0  0  0  0  0  0  0  0  0  0  0  0
   18.2660   33.7840  126.8480 N   0  0  0  0  0  0  0  0  0  0  0  0
   18.5130   32.4500  126.5700 C   0  0  0  0  0  0  0  0  0  0  0  0
   18.3520   31.9000  125.4870 O   0  0  0  0  0  0  0  0  0  0  0  0
   18.5100   34.0500  127.7950 H   0  0  0  0  0  0  0  0  0  0  0  0
   19.0130   31.7300  127.7300 C   0  0  0  0  0  0  0  0  0  0  0  0
   20.2630   31.2030  128.0060 C   0  0  0  0  0  0  0  0  0  0  0  0
   18.1720   31.4820  128.7850 O   0  0  0  0  0  0  0  0  0  0  0  0
   20.1770   30.5970  129.2820 C   0  0  0  0  0  0  0  0  0  0  0  0
   18.8870   30.7990  129.7150 C   0  0  0  0  0  0  0  0  0  0  0  0
   13.6330   38.7810  125.4770 C   0  0  0  0  0  0  0  0  0  0  0  0
   14.5170   39.6790  124.6030 C   0  0  0  0  0  0  0  0  0  0  0  0
   15.5990   40.0970  125.0210 O   0  0  0  0  0  0  0  0  0  0  0  0
   14.0540   39.9840  123.2440 C   0  0  0  0  0  0  0  0  0  0  0  0
   13.3580   39.1310  122.4020 C   0  0  0  0  0  0  0  0  0  0  0  0
   14.2290   41.2150  122.5230 C   0  0  0  0  0  0  0  0  0  0  0  0
   13.1060   39.7910  121.2280 N   0  0  0  0  0  0  0  0  0  0  0  0
   14.8380   42.4530  122.8210 C   0  0  0  0  0  0  0  0  0  0  0  0
   13.6310   41.0600  121.2720 C   0  0  0  0  0  0  0  0  0  0  0  0
   14.8270   43.4800  121.8700 C   0  0  0  0  0  0  0  0  0  0  0  0
   13.6130   42.0750  120.3070 C   0  0  0  0  0  0  0  0  0  0  0  0
   14.2190   43.2920  120.6310 C   0  0  0  0  0  0  0  0  0  0  0  0
   12.6060   39.4070  120.4380 H   0  0  0  0  0  0  0  0  0  0  0  0
  2  1  1  0  0  0  0
  3  2  2  0  0  0  0
  4  2  1  0  0  0  0
  4  9  1  0  0  0  0
  5  7  1  0  0  0  0
  6  8  1  0  0  0  0
  6  5  2  0  0  0  0
  7  9  2  0  0  0  0
  7 11  1  0  0  0  0
  8  4  2  0  0  0  0
 10  5  1  0  0  0  0
 11 14  1  0  0  0  0
 12 11  1  0  0  0  0
 12 15  1  0  0  0  0
 13 12  2  0  0  0  0
 15 16  2  0  0  0  0
 15 17  1  0  0  0  0
 16 18  1  0  0  0  0
 17 19  1  0  0  0  0
 18 19  2  0  0  0  0
 20  1  1  0  0  0  0
 21 22  2  0  0  0  0
 21 20  1  0  0  0  0
 23 21  1  0  0  0  0
 24 23  2  0  0  0  0
 25 27  1  0  0  0  0
 25 23  1  0  0  0  0
 26 28  1  0  0  0  0
 26 24  1  0  0  0  0
 28 25  2  0  0  0  0
 29 27  2  0  0  0  0
 30 31  2  0  0  0  0
 30 28  1  0  0  0  0
 31 29  1  0  0  0  0
 32 26  1  0  0  0  0
M  END
>  <minimizedAffinity>
-8.80233383

>  <CNNscore>
0.247553095

>  <CNNaffinity>
5.72677851

$$$$

 OpenBabel09052612093D

 32 35  0  0  0  0  0  0  0  0999 V2000
   14.0440   37.1660  123.8930 O   0  0  0  0  0  0  0  0  0  0  0  0
   14.7490   37.7170  124.9150 C   0  0  0  0  0  0  0  0  0  0  0  0
   14.2840   38.4480  125.7760 O   0  0  0  0  0  0  0  0  0  0  0  0
   16.1750   37.2930  124.8600 C   0  0  0  0  0  0  0  0  0  0  0  0
   18.8500   36.4290  124.8390 C   0  0  0  0  0  0  0  0  0  0  0  0
   18.4910   37.6700  124.2860 C   0  0  0  0  0  0  0  0  0  0  0  0
   17.8520   35.6040  125.4060 C   0  0  0  0  0  0  0  0  0  0  0  0
   17.1660   38.1010  124.2960 C   0  0  0  0  0  0  0  0  0  0  0  0
   16.5240   36.0500  125.4120 C   0  0  0  0  0  0  0  0  0  0  0  0
   20.3010   36.0250  124.7940 C   0  0  0  0  0  0  0  0  0  0  0  0
   18.2400   34.3640  125.9590 N   0  0  0  0  0  0  0  0  0  0  0  0
   17.8410   33.7740  127.1460 C   0  0  0  0  0  0  0  0  0  0  0  0
   17.0080   34.2200  127.9250 O   0  0  0  0  0  0  0  0  0  0  0  0
   18.9070   33.8080  125.4370 H   0  0  0  0  0  0  0  0  0  0  0  0
   18.5250   32.5150  127.3910 C   0  0  0  0  0  0  0  0  0  0  0  0
   19.6940   31.9950  126.8640 C   0  0  0  0  0  0  0  0  0  0  0  0
   17.9930   31.6200  128.2860 O   0  0  0  0  0  0  0  0  0  0  0  0
   19.8780   30.7230  127.4540 C   0  0  0  0  0  0  0  0  0  0  0  0
   18.8200   30.5440  128.3150 C   0  0  0  0  0  0  0  0  0  0  0  0
   12.7190   37.6850  123.7620 C   0  0  0  0  0  0  0  0  0  0  0  0
   12.6160   38.8140  122.7300 C   0  0  0  0  0  0  0  0  0  0  0  0
   12.5410   38.5620  121.5250 O   0  0  0  0  0  0  0  0  0  0  0  0
   12.5630   40.1940  123.2260 C   0  0  0  0  0  0  0  0  0  0  0  0
   11.4240   40.8890  123.6030 C   0  0  0  0  0  0  0  0  0  0  0  0
   13.6690   41.0920  123.4170 C   0  0  0  0  0  0  0  0  0  0  0  0
   11.7970   42.1430  124.0120 N   0  0  0  0  0  0  0  0  0  0  0  0
   15.0640   40.9910  123.2250 C   0  0  0  0  0  0  0  0  0  0  0  0
   13.1570   42.2960  123.9030 C   0  0  0  0  0  0  0  0  0  0  0  0
   15.8880   42.0820  123.5240 C   0  0  0  0  0  0  0  0  0  0  0  0
   13.9660   43.3990  124.2040 C   0  0  0  0  0  0  0  0  0  0  0  0
   15.3450   43.2680  124.0100 C   0  0  0  0  0  0  0  0  0  0  0  0
   11.1670   42.8590  124.3480 H   0  0  0  0  0  0  0  0  0  0  0  0
  1  2  1  0  0  0  0
  2  3  2  0  0  0  0
  4  2  1  0  0  0  0
  4  9  1  0  0  0  0
  5  7  1  0  0  0  0
  6  8  1  0  0  0  0
  6  5  2  0  0  0  0
  7  9  2  0  0  0  0
  7 11  1  0  0  0  0
  8  4  2  0  0  0  0
 10  5  1  0  0  0  0
 11 12  1  0  0  0  0
 12 15  1  0  0  0  0
 12 13  2  0  0  0  0
 14 11  1  0  0  0  0
 15 17  1  0  0  0  0
 16 15  2  0  0  0  0
 16 18  1  0  0  0  0
 17 19  1  0  0  0  0
 18 19  2  0  0  0  0
 20  1  1  0  0  0  0
 21 23  1  0  0  0  0
 21 20  1  0  0  0  0
 22 21  2  0  0  0  0
 23 25  1  0  0  0  0
 23 24  2  0  0  0  0
 24 26  1  0  0  0  0
 25 28  1  0  0  0  0
 26 32  1  0  0  0  0
 27 25  2  0  0  0  0
 27 29  1  0  0  0  0
 28 26  1  0  0  0  0
 28 30  2  0  0  0  0
 29 31  2  0  0  0  0
 31 30  1  0  0  0  0
M  END
>  <minimizedAffinity>
-8.48770046

>  <CNNscore>
0.239318103

>  <CNNaffinity>
5.47937918

$$$$

 OpenBabel09052612093D

 32 35  0  0  0  0  0  0  0  0999 V2000
   14.4200   37.2180  123.4360 O   0  0  0  0  0  0  0  0  0  0  0  0
   14.8360   37.2130  124.7300 C   0  0  0  0  0  0  0  0  0  0  0  0
   14.1250   37.4390  125.6970 O   0  0  0  0  0  0  0  0  0  0  0  0
   16.2830   36.8750  124.8170 C   0  0  0  0  0  0  0  0  0  0  0  0
   18.9970   36.1870  125.0730 C   0  0  0  0  0  0  0  0  0  0  0  0
   18.6060   37.2950  124.3020 C   0  0  0  0  0  0  0  0  0  0  0  0
   18.0120   35.4060  125.7200 C   0  0  0  0  0  0  0  0  0  0  0  0
   17.2610   37.6390  124.1740 C   0  0  0  0  0  0  0  0  0  0  0  0
   16.6640   35.7640  125.5860 C   0  0  0  0  0  0  0  0  0  0  0  0
   20.4670   35.8720  125.1670 C   0  0  0  0  0  0  0  0  0  0  0  0
   18.4320   34.3010  126.4910 N   0  0  0  0  0  0  0  0  0  0  0  0
   18.8330   33.0440  126.0700 C   0  0  0  0  0  0  0  0  0  0  0  0
   18.9490   32.6790  124.9060 O   0  0  0  0  0  0  0  0  0  0  0  0
   18.4470   34.4120  127.4980 H   0  0  0  0  0  0  0  0  0  0  0  0
   19.1270   32.1580  127.1850 C   0  0  0  0  0  0  0  0  0  0  0  0
   20.3140   31.5820  127.6030 C   0  0  0  0  0  0  0  0  0  0  0  0
   18.1120   31.7700  128.0240 O   0  0  0  0  0  0  0  0  0  0  0  0
   20.0090   30.8000  128.7410 C   0  0  0  0  0  0  0  0  0  0  0  0
   18.6590   30.9520  128.9600 C   0  0  0  0  0  0  0  0  0  0  0  0
   13.4450   38.2220  123.1490 C   0  0  0  0  0  0  0  0  0  0  0  0
   13.7980   39.0680  121.9210 C   0  0  0  0  0  0  0  0  0  0  0  0
   13.9090   38.5480  120.8080 O   0  0  0  0  0  0  0  0  0  0  0  0
   13.9530   40.5150  122.1060 C   0  0  0  0  0  0  0  0  0  0  0  0
   13.4070   41.5090  121.3070 C   0  0  0  0  0  0  0  0  0  0  0  0
   14.6940   41.1850  123.1390 C   0  0  0  0  0  0  0  0  0  0  0  0
   13.7790   42.7260  121.8160 N   0  0  0  0  0  0  0  0  0  0  0  0
   15.4600   40.7490  124.2430 C   0  0  0  0  0  0  0  0  0  0  0  0
   14.5680   42.5590  122.9280 C   0  0  0  0  0  0  0  0  0  0  0  0
   16.0630   41.6900  125.0860 C   0  0  0  0  0  0  0  0  0  0  0  0
   15.1670   43.5140  123.7590 C   0  0  0  0  0  0  0  0  0  0  0  0
   15.9150   43.0530  124.8470 C   0  0  0  0  0  0  0  0  0  0  0  0
   13.5140   43.6240  121.4340 H   0  0  0  0  0  0  0  0  0  0  0  0
  1  2  1  0  0  0  0
  2  4  1  0  0  0  0
  2  3  2  0  0  0  0
  4  9  1  0  0  0  0
  5 10  1  0  0  0  0
  5  7  1  0  0  0  0
  6  5  2  0  0  0  0
  7 11  1  0  0  0  0
  8  6  1  0  0  0  0
  8  4  2  0  0  0  0
  9  7  2  0  0  0  0
 11 14  1  0  0  0  0
 12 11  1  0  0  0  0
 12 15  1  0  0  0  0
 13 12  2  0  0  0  0
 15 16  2  0  0  0  0
 15 17  1  0  0  0  0
 16 18  1  0  0  0  0
 17 19  1  0  0  0  0
 18 19  2  0  0  0  0
 20  1  1  0  0  0  0
 21 23  1  0  0  0  0
 21 20  1  0  0  0  0
 22 21  2  0  0  0  0
 23 25  1  0  0  0  0
 24 26  1  0  0  0  0
 24 23  2  0  0  0  0
 25 27  1  0  0  0  0
 26 28  1  0  0  0  0
 27 29  2  0  0  0  0
 28 25  2  0  0  0  0
 28 30  1  0  0  0  0
 30 31  2  0  0  0  0
 31 29  1  0  0  0  0
 32 26  1  0  0  0  0
M  END
>  <minimizedAffinity>
-8.56172752

>  <CNNscore>
0.238380104

>  <CNNaffinity>
5.71714258

$$$$
