
 OpenBabel09052614103D

 36 39  0  0  0  0  0  0  0  0999 V2000
   18.0690   40.3200  123.7140 N   0  0  0  0  0  0  0  0  0  0  0  0
   17.8260   39.1020  124.3360 C   0  0  0  0  0  0  0  0  0  0  0  0
   16.8740   38.8690  125.0670 O   0  0  0  0  0  0  0  0  0  0  0  0
   18.8250   38.1960  124.0090 N   0  0  0  0  0  0  0  0  0  0  0  0
   19.0130   40.4680  123.3930 H   0  0  0  0  0  0  0  0  0  0  0  0
   19.3880   38.4370  123.2080 H   0  0  0  0  0  0  0  0  0  0  0  0
   17.2250   41.4510  123.6900 C   0  0  0  0  0  0  0  0  0  0  0  0
   15.3320   42.5660  122.5760 C   0  0  0  0  0  0  0  0  0  0  0  0
   16.2360   41.4950  122.6950 C   0  0  0  0  0  0  0  0  0  0  0  0
   15.4330   43.5920  123.5230 C   0  0  0  0  0  0  0  0  0  0  0  0
   16.4030   43.5680  124.5410 C   0  0  0  0  0  0  0  0  0  0  0  0
   17.3000   42.4930  124.6100 C   0  0  0  0  0  0  0  0  0  0  0  0
   14.3680   42.5490  121.5530 N   0  0  0  0  0  0  0  0  0  0  0  0
   13.7190   41.2740  121.2410 C   0  0  0  0  0  0  0  0  0  0  0  0
   13.4490   43.6930  121.5920 C   0  0  0  0  0  0  0  0  0  0  0  0
   16.5040   44.7000  125.5320 C   0  0  0  0  0  0  0  0  0  0  0  0
   16.7370   44.2750  126.8080 F   0  0  0  0  0  0  0  0  0  0  0  0
   15.3640   45.4410  125.5930 F   0  0  0  0  0  0  0  0  0  0  0  0
   17.5090   45.5730  125.2490 F   0  0  0  0  0  0  0  0  0  0  0  0
   19.0040   36.8930  124.5210 C   0  0  0  0  0  0  0  0  0  0  0  0
   20.1200   36.0900  124.2370 C   0  0  0  0  0  0  0  0  0  0  0  0
   17.9830   36.3800  125.3310 C   0  0  0  0  0  0  0  0  0  0  0  0
   20.2420   34.7960  124.7670 C   0  0  0  0  0  0  0  0  0  0  0  0
   18.1110   35.0950  125.8430 C   0  0  0  0  0  0  0  0  0  0  0  0
   19.2400   34.3130  125.5880 C   0  0  0  0  0  0  0  0  0  0  0  0
   17.1430   34.3760  126.7300 C   0  0  0  0  0  0  0  0  0  0  0  0
   19.0970   33.0650  126.2210 N   0  0  0  0  0  0  0  0  0  0  0  0
   17.7140   32.9570  126.7060 C   0  0  0  0  0  0  0  0  0  0  0  0
   19.9320   31.9630  126.2710 C   0  0  0  0  0  0  0  0  0  0  0  0
   20.5080   31.5240  125.2750 O   0  0  0  0  0  0  0  0  0  0  0  0
   20.1050   31.2130  127.5230 C   0  0  0  0  0  0  0  0  0  0  0  0
   19.8970   31.8400  128.7520 C   0  0  0  0  0  0  0  0  0  0  0  0
   20.5720   29.9070  127.5160 C   0  0  0  0  0  0  0  0  0  0  0  0
   20.1140   31.1190  129.9230 C   0  0  0  0  0  0  0  0  0  0  0  0
   20.7880   29.1830  128.6420 N   0  0  0  0  0  0  0  0  0  0  0  0
   20.5510   29.8060  129.8180 C   0  0  0  0  0  0  0  0  0  0  0  0
  1  2  1  0  0  0  0
  2  3  2  0  0  0  0
  4  2  1  0  0  0  0
  4 20  1  0  0  0  0
  5  1  1  0  0  0  0
  6  4  1  0  0  0  0
  7  1  1  0  0  0  0
  7 12  1  0  0  0  0
  8  9  1  0  0  0  0
  8 10  2  0  0  0  0
  9  7  2  0  0  0  0
 10 11  1  0  0  0  0
 11 12  2  0  0  0  0
 11 16  1  0  0  0  0
 13 15  1  0  0  0  0
 13  8  1  0  0  0  0
 14 13  1  0  0  0  0
 16 18  1  0  0  0  0
 16 17  1  0  0  0  0
 19 16  1  0  0  0  0
 20 22  1  0  0  0  0
 21 20  2  0  0  0  0
 21 23  1  0  0  0  0
 22 24  2  0  0  0  0
 23 25  2  0  0  0  0
 24 26  1  0  0  0  0
 25 24  1  0  0  0  0
 25 27  1  0  0  0  0
 27 29  1  0  0  0  0
 27 28  1  0  0  0  0
 28 26  1  0  0  0  0
 29 31  1  0  0  0  0
 30 29  2  0  0  0  0
 31 32  1  0  0  0  0
 32 34  2  0  0  0  0
 33 31  2  0  0  0  0
 33 35  1  0  0  0  0
 35 36  2  0  0  0  0
 36 34  1  0  0  0  0
M  END
>  <minimizedAffinity>
-8.25607586

>  <CNNscore>
0.302200913

>  <CNNaffinity>
6.8211751

$$$$

 OpenBabel09052614103D

 36 39  0  0  0  0  0  0  0  0999 V2000
   16.8370   34.5950  126.9420 N   0  0  0  0  0  0  0  0  0  0  0  0
   16.2450   35.3680  125.9510 C   0  0  0  0  0  0  0  0  0  0  0  0
   16.5860   35.3760  124.7760 O   0  0  0  0  0  0  0  0  0  0  0  0
   15.2190   36.1290  126.4920 N   0  0  0  0  0  0  0  0  0  0  0  0
   16.6680   34.8940  127.8890 H   0  0  0  0  0  0  0  0  0  0  0  0
   14.8860   35.8320  127.3960 H   0  0  0  0  0  0  0  0  0  0  0  0
   17.8220   33.5990  126.7750 C   0  0  0  0  0  0  0  0  0  0  0  0
   19.7880   32.8630  125.4860 C   0  0  0  0  0  0  0  0  0  0  0  0
   18.7560   33.7830  125.7440 C   0  0  0  0  0  0  0  0  0  0  0  0
   19.8730   31.7490  126.3310 C   0  0  0  0  0  0  0  0  0  0  0  0
   18.9610   31.5450  127.3830 C   0  0  0  0  0  0  0  0  0  0  0  0
   17.9330   32.4760  127.5900 C   0  0  0  0  0  0  0  0  0  0  0  0
   20.6890   33.1060  124.4350 N   0  0  0  0  0  0  0  0  0  0  0  0
   21.0490   34.4960  124.1480 C   0  0  0  0  0  0  0  0  0  0  0  0
   21.8230   32.1760  124.4050 C   0  0  0  0  0  0  0  0  0  0  0  0
   19.0620   30.3240  128.2600 C   0  0  0  0  0  0  0  0  0  0  0  0
   18.1280   29.3740  127.9650 F   0  0  0  0  0  0  0  0  0  0  0  0
   18.8870   30.6150  129.5780 F   0  0  0  0  0  0  0  0  0  0  0  0
   20.2660   29.6940  128.1680 F   0  0  0  0  0  0  0  0  0  0  0  0
   14.4500   37.1200  125.8450 C   0  0  0  0  0  0  0  0  0  0  0  0
   13.5600   37.9750  126.5120 C   0  0  0  0  0  0  0  0  0  0  0  0
   14.5770   37.2170  124.4530 C   0  0  0  0  0  0  0  0  0  0  0  0
   12.8130   38.9380  125.8150 C   0  0  0  0  0  0  0  0  0  0  0  0
   13.8260   38.1680  123.7740 C   0  0  0  0  0  0  0  0  0  0  0  0
   12.9680   39.0420  124.4460 C   0  0  0  0  0  0  0  0  0  0  0  0
   13.8260   38.4350  122.3010 C   0  0  0  0  0  0  0  0  0  0  0  0
   12.3370   39.8860  123.5130 N   0  0  0  0  0  0  0  0  0  0  0  0
   12.6250   39.3730  122.1670 C   0  0  0  0  0  0  0  0  0  0  0  0
   11.4170   40.9060  123.6780 C   0  0  0  0  0  0  0  0  0  0  0  0
   10.2110   40.7470  123.4870 O   0  0  0  0  0  0  0  0  0  0  0  0
   11.8620   42.2640  124.0210 C   0  0  0  0  0  0  0  0  0  0  0  0
   13.2130   42.6030  123.9360 C   0  0  0  0  0  0  0  0  0  0  0  0
   10.9740   43.2010  124.5290 C   0  0  0  0  0  0  0  0  0  0  0  0
   13.6130   43.8830  124.3130 C   0  0  0  0  0  0  0  0  0  0  0  0
   11.3370   44.4530  124.8990 N   0  0  0  0  0  0  0  0  0  0  0  0
   12.6470   44.7640  124.7790 C   0  0  0  0  0  0  0  0  0  0  0  0
  1  5  1  0  0  0  0
  2  4  1  0  0  0  0
  2  1  1  0  0  0  0
  3  2  2  0  0  0  0
  4  6  1  0  0  0  0
  7  1  1  0  0  0  0
  7 12  1  0  0  0  0
  8  9  1  0  0  0  0
  8 10  2  0  0  0  0
  9  7  2  0  0  0  0
 10 11  1  0  0  0  0
 11 12  2  0  0  0  0
 11 16  1  0  0  0  0
 13  8  1  0  0  0  0
 14 13  1  0  0  0  0
 15 13  1  0  0  0  0
 16 18  1  0  0  0  0
 17 16  1  0  0  0  0
 19 16  1  0  0  0  0
 20  4  1  0  0  0  0
 20 21  1  0  0  0  0
 22 20  2  0  0  0  0
 23 21  2  0  0  0  0
 24 25  2  0  0  0  0
 24 22  1  0  0  0  0
 25 23  1  0  0  0  0
 26 24  1  0  0  0  0
 27 29  1  0  0  0  0
 27 25  1  0  0  0  0
 28 26  1  0  0  0  0
 28 27  1  0  0  0  0
 29 31  1  0  0  0  0
 30 29  2  0  0  0  0
 31 33  1  0  0  0  0
 32 31  2  0  0  0  0
 32 34  1  0  0  0  0
 33 35  2  0  0  0  0
 34 36  2  0  0  0  0
 36 35  1  0  0  0  0
M  END
>  <minimizedAffinity>
-9.79060364

>  <CNNscore>
0.292273313

>  <CNNaffinity>
6.66457891

$$$$

 OpenBabel09052614103D

 36 39  0  0  0  0  0  0  0  0999 V2000
   13.4780   40.3580  124.5380 N   0  0  0  0  0  0  0  0  0  0  0  0
   14.2940   39.3440  124.0510 C   0  0  0  0  0  0  0  0  0  0  0  0
   14.1950   38.8430  122.9400 O   0  0  0  0  0  0  0  0  0  0  0  0
   15.2270   38.9840  125.0110 N   0  0  0  0  0  0  0  0  0  0  0  0
   13.4690   40.4690  125.5400 H   0  0  0  0  0  0  0  0  0  0  0  0
   15.3580   39.6450  125.7620 H   0  0  0  0  0  0  0  0  0  0  0  0
   12.4970   41.0820  123.8270 C   0  0  0  0  0  0  0  0  0  0  0  0
   12.0100   42.4620  121.8460 C   0  0  0  0  0  0  0  0  0  0  0  0
   12.9000   41.7180  122.6430 C   0  0  0  0  0  0  0  0  0  0  0  0
   10.6760   42.5210  122.2660 C   0  0  0  0  0  0  0  0  0  0  0  0
   10.2400   41.8810  123.4400 C   0  0  0  0  0  0  0  0  0  0  0  0
   11.1640   41.1690  124.2180 C   0  0  0  0  0  0  0  0  0  0  0  0
   12.4790   43.0770  120.6720 N   0  0  0  0  0  0  0  0  0  0  0  0
   12.4480   44.5390  120.6030 C   0  0  0  0  0  0  0  0  0  0  0  0
   13.7140   42.4800  120.1480 C   0  0  0  0  0  0  0  0  0  0  0  0
    8.8020   41.9820  123.8820 C   0  0  0  0  0  0  0  0  0  0  0  0
    8.6490   42.6590  125.0570 F   0  0  0  0  0  0  0  0  0  0  0  0
    8.2320   40.7630  124.0830 F   0  0  0  0  0  0  0  0  0  0  0  0
    8.0090   42.6270  122.9830 F   0  0  0  0  0  0  0  0  0  0  0  0
   16.1590   37.9250  124.9510 C   0  0  0  0  0  0  0  0  0  0  0  0
   15.7990   36.5690  124.9590 C   0  0  0  0  0  0  0  0  0  0  0  0
   17.5150   38.2720  124.9120 C   0  0  0  0  0  0  0  0  0  0  0  0
   16.7700   35.5560  124.9060 C   0  0  0  0  0  0  0  0  0  0  0  0
   18.4670   37.2610  124.8680 C   0  0  0  0  0  0  0  0  0  0  0  0
   18.1040   35.9120  124.8380 C   0  0  0  0  0  0  0  0  0  0  0  0
   19.9540   37.4220  124.8120 C   0  0  0  0  0  0  0  0  0  0  0  0
   19.2630   35.1160  124.8030 N   0  0  0  0  0  0  0  0  0  0  0  0
   20.4200   35.9860  125.0580 C   0  0  0  0  0  0  0  0  0  0  0  0
   19.4300   33.7430  124.7630 C   0  0  0  0  0  0  0  0  0  0  0  0
   19.5470   33.1220  123.7060 O   0  0  0  0  0  0  0  0  0  0  0  0
   19.3970   32.9510  126.0000 C   0  0  0  0  0  0  0  0  0  0  0  0
   20.3170   31.9220  126.2010 C   0  0  0  0  0  0  0  0  0  0  0  0
   18.3970   33.1410  126.9440 C   0  0  0  0  0  0  0  0  0  0  0  0
   20.2320   31.1570  127.3620 C   0  0  0  0  0  0  0  0  0  0  0  0
   18.2950   32.4120  128.0830 N   0  0  0  0  0  0  0  0  0  0  0  0
   19.2160   31.4400  128.2650 C   0  0  0  0  0  0  0  0  0  0  0  0
  1  5  1  0  0  0  0
  2  1  1  0  0  0  0
  2  4  1  0  0  0  0
  3  2  2  0  0  0  0
  4  6  1  0  0  0  0
  7 12  1  0  0  0  0
  7  1  1  0  0  0  0
  8 10  2  0  0  0  0
  8  9  1  0  0  0  0
  9  7  2  0  0  0  0
 10 11  1  0  0  0  0
 11 16  1  0  0  0  0
 11 12  2  0  0  0  0
 13  8  1  0  0  0  0
 14 13  1  0  0  0  0
 15 13  1  0  0  0  0
 16 18  1  0  0  0  0
 16 17  1  0  0  0  0
 19 16  1  0  0  0  0
 20 21  1  0  0  0  0
 20  4  1  0  0  0  0
 22 20  2  0  0  0  0
 23 21  2  0  0  0  0
 24 22  1  0  0  0  0
 25 24  2  0  0  0  0
 25 23  1  0  0  0  0
 26 24  1  0  0  0  0
 26 28  1  0  0  0  0
 27 25  1  0  0  0  0
 27 28  1  0  0  0  0
 29 27  1  0  0  0  0
 29 31  1  0  0  0  0
 30 29  2  0  0  0  0
 31 32  2  0  0  0  0
 31 33  1  0  0  0  0
 32 34  1  0  0  0  0
 33 35  2  0  0  0  0
 34 36  2  0  0  0  0
 35 36  1  0  0  0  0
M  END
>  <minimizedAffinity>
-8.84604549

>  <CNNscore>
0.282258093

>  <CNNaffinity>
6.56447601

$$$$

 OpenBabel09052614103D

 36 39  0  0  0  0  0  0  0  0999 V2000
   17.5220   35.1490  126.1880 N   0  0  0  0  0  0  0  0  0  0  0  0
   17.0410   35.8780  125.1080 C   0  0  0  0  0  0  0  0  0  0  0  0
   17.3670   35.6970  123.9440 O   0  0  0  0  0  0  0  0  0  0  0  0
   16.1450   36.8410  125.5480 N   0  0  0  0  0  0  0  0  0  0  0  0
   17.4080   35.5790  127.0920 H   0  0  0  0  0  0  0  0  0  0  0  0
   15.7800   36.7060  126.4780 H   0  0  0  0  0  0  0  0  0  0  0  0
   18.3470   34.0050  126.1480 C   0  0  0  0  0  0  0  0  0  0  0  0
   18.8140   31.7860  127.1120 C   0  0  0  0  0  0  0  0  0  0  0  0
   18.0670   32.9770  127.0620 C   0  0  0  0  0  0  0  0  0  0  0  0
   19.8480   31.6450  126.1780 C   0  0  0  0  0  0  0  0  0  0  0  0
   20.1420   32.6500  125.2390 C   0  0  0  0  0  0  0  0  0  0  0  0
   19.3870   33.8320  125.2390 C   0  0  0  0  0  0  0  0  0  0  0  0
   18.4830   30.7980  128.0550 N   0  0  0  0  0  0  0  0  0  0  0  0
   17.8700   29.5610  127.5670 C   0  0  0  0  0  0  0  0  0  0  0  0
   19.5160   30.5900  129.0760 C   0  0  0  0  0  0  0  0  0  0  0  0
   21.2770   32.4810  124.2620 C   0  0  0  0  0  0  0  0  0  0  0  0
   22.0300   31.3680  124.5040 F   0  0  0  0  0  0  0  0  0  0  0  0
   22.1480   33.5270  124.2900 F   0  0  0  0  0  0  0  0  0  0  0  0
   20.8620   32.3680  122.9710 F   0  0  0  0  0  0  0  0  0  0  0  0
   15.5250   37.8520  124.7820 C   0  0  0  0  0  0  0  0  0  0  0  0
   15.1280   39.0930  125.3030 C   0  0  0  0  0  0  0  0  0  0  0  0
   15.2730   37.5660  123.4340 C   0  0  0  0  0  0  0  0  0  0  0  0
   14.5060   40.0590  124.4960 C   0  0  0  0  0  0  0  0  0  0  0  0
   14.6500   38.5260  122.6470 C   0  0  0  0  0  0  0  0  0  0  0  0
   14.2900   39.7750  123.1610 C   0  0  0  0  0  0  0  0  0  0  0  0
   14.3050   38.4190  121.1950 C   0  0  0  0  0  0  0  0  0  0  0  0
   13.6750   40.5360  122.1500 N   0  0  0  0  0  0  0  0  0  0  0  0
   13.4180   39.6510  121.0050 C   0  0  0  0  0  0  0  0  0  0  0  0
   13.1540   41.8180  122.1590 C   0  0  0  0  0  0  0  0  0  0  0  0
   11.9690   42.0490  122.4010 O   0  0  0  0  0  0  0  0  0  0  0  0
   13.9950   42.9680  121.7990 C   0  0  0  0  0  0  0  0  0  0  0  0
   13.4190   44.1250  121.2750 C   0  0  0  0  0  0  0  0  0  0  0  0
   15.3790   42.8930  121.8760 C   0  0  0  0  0  0  0  0  0  0  0  0
   14.2450   45.1800  120.8980 C   0  0  0  0  0  0  0  0  0  0  0  0
   16.2050   43.9080  121.5190 N   0  0  0  0  0  0  0  0  0  0  0  0
   15.6170   45.0270  121.0420 C   0  0  0  0  0  0  0  0  0  0  0  0
  1  5  1  0  0  0  0
  2  4  1  0  0  0  0
  2  1  1  0  0  0  0
  3  2  2  0  0  0  0
  4  6  1  0  0  0  0
  7  1  1  0  0  0  0
  7  9  1  0  0  0  0
  8 13  1  0  0  0  0
  9  8  2  0  0  0  0
 10  8  1  0  0  0  0
 11 10  2  0  0  0  0
 12 11  1  0  0  0  0
 12  7  2  0  0  0  0
 13 15  1  0  0  0  0
 14 13  1  0  0  0  0
 16 18  1  0  0  0  0
 16 17  1  0  0  0  0
 16 11  1  0  0  0  0
 19 16  1  0  0  0  0
 20 21  1  0  0  0  0
 20  4  1  0  0  0  0
 22 20  2  0  0  0  0
 23 21  2  0  0  0  0
 24 25  2  0  0  0  0
 24 22  1  0  0  0  0
 25 23  1  0  0  0  0
 26 24  1  0  0  0  0
 27 29  1  0  0  0  0
 27 25  1  0  0  0  0
 28 26  1  0  0  0  0
 28 27  1  0  0  0  0
 29 30  2  0  0  0  0
 31 33  1  0  0  0  0
 31 29  1  0  0  0  0
 32 31  2  0  0  0  0
 34 36  2  0  0  0  0
 34 32  1  0  0  0  0
 35 33  2  0  0  0  0
 36 35  1  0  0  0  0
M  END
>  <minimizedAffinity>
-9.57757282

>  <CNNscore>
0.242742419

>  <CNNaffinity>
6.37871552

$$$$

 OpenBabel09052614103D

 36 39  0  0  0  0  0  0  0  0999 V2000
   17.1660   34.6990  126.6410 N   0  0  0  0  0  0  0  0  0  0  0  0
   16.5100   35.4560  125.6780 C   0  0  0  0  0  0  0  0  0  0  0  0
   16.7840   35.4570  124.4860 O   0  0  0  0  0  0  0  0  0  0  0  0
   15.5080   36.2100  126.2710 N   0  0  0  0  0  0  0  0  0  0  0  0
   17.0480   35.0050  127.5940 H   0  0  0  0  0  0  0  0  0  0  0  0
   15.2300   35.9180  127.1950 H   0  0  0  0  0  0  0  0  0  0  0  0
   18.1520   33.7120  126.4270 C   0  0  0  0  0  0  0  0  0  0  0  0
   19.0510   31.5320  127.1390 C   0  0  0  0  0  0  0  0  0  0  0  0
   18.1250   32.5850  127.2610 C   0  0  0  0  0  0  0  0  0  0  0  0
   20.0000   31.6360  126.1140 C   0  0  0  0  0  0  0  0  0  0  0  0
   20.0420   32.7460  125.2520 C   0  0  0  0  0  0  0  0  0  0  0  0
   19.1150   33.7850  125.4240 C   0  0  0  0  0  0  0  0  0  0  0  0
   18.9700   30.4320  128.0100 N   0  0  0  0  0  0  0  0  0  0  0  0
   19.0720   30.6860  129.4480 C   0  0  0  0  0  0  0  0  0  0  0  0
   17.9230   29.4690  127.6460 C   0  0  0  0  0  0  0  0  0  0  0  0
   21.0910   32.8420  124.1740 C   0  0  0  0  0  0  0  0  0  0  0  0
   22.0750   31.9050  124.2990 F   0  0  0  0  0  0  0  0  0  0  0  0
   21.7270   34.0460  124.1730 F   0  0  0  0  0  0  0  0  0  0  0  0
   20.5880   32.6790  122.9190 F   0  0  0  0  0  0  0  0  0  0  0  0
   14.6920   37.1870  125.6590 C   0  0  0  0  0  0  0  0  0  0  0  0
   13.7980   38.0080  126.3630 C   0  0  0  0  0  0  0  0  0  0  0  0
   14.7740   37.3040  124.2660 C   0  0  0  0  0  0  0  0  0  0  0  0
   13.0030   38.9570  125.7020 C   0  0  0  0  0  0  0  0  0  0  0  0
   13.9760   38.2410  123.6220 C   0  0  0  0  0  0  0  0  0  0  0  0
   13.1140   39.0820  124.3300 C   0  0  0  0  0  0  0  0  0  0  0  0
   13.9240   38.5260  122.1530 C   0  0  0  0  0  0  0  0  0  0  0  0
   12.4310   39.9180  123.4280 N   0  0  0  0  0  0  0  0  0  0  0  0
   12.6930   39.4300  122.0670 C   0  0  0  0  0  0  0  0  0  0  0  0
   11.4880   40.9090  123.6340 C   0  0  0  0  0  0  0  0  0  0  0  0
   10.2830   40.7220  123.4610 O   0  0  0  0  0  0  0  0  0  0  0  0
   11.9040   42.2710  123.9990 C   0  0  0  0  0  0  0  0  0  0  0  0
   13.2370   42.6580  123.8650 C   0  0  0  0  0  0  0  0  0  0  0  0
   11.0080   43.1610  124.5750 C   0  0  0  0  0  0  0  0  0  0  0  0
   13.6110   43.9390  124.2640 C   0  0  0  0  0  0  0  0  0  0  0  0
   11.3470   44.4140  124.9680 N   0  0  0  0  0  0  0  0  0  0  0  0
   12.6390   44.7730  124.8000 C   0  0  0  0  0  0  0  0  0  0  0  0
  1  5  1  0  0  0  0
  2  4  1  0  0  0  0
  2  1  1  0  0  0  0
  3  2  2  0  0  0  0
  4  6  1  0  0  0  0
  7  1  1  0  0  0  0
  7  9  1  0  0  0  0
  8  9  2  0  0  0  0
  8 13  1  0  0  0  0
 10  8  1  0  0  0  0
 11 12  1  0  0  0  0
 11 10  2  0  0  0  0
 12  7  2  0  0  0  0
 13 14  1  0  0  0  0
 15 13  1  0  0  0  0
 16 17  1  0  0  0  0
 16 11  1  0  0  0  0
 18 16  1  0  0  0  0
 19 16  1  0  0  0  0
 20  4  1  0  0  0  0
 20 21  1  0  0  0  0
 22 20  2  0  0  0  0
 23 21  2  0  0  0  0
 24 22  1  0  0  0  0
 24 25  2  0  0  0  0
 25 23  1  0  0  0  0
 26 24  1  0  0  0  0
 27 29  1  0  0  0  0
 27 25  1  0  0  0  0
 28 26  1  0  0  0  0
 28 27  1  0  0  0  0
 29 31  1  0  0  0  0
 30 29  2  0  0  0  0
 31 33  1  0  0  0  0
 32 31  2  0  0  0  0
 32 34  1  0  0  0  0
 33 35  2  0  0  0  0
 34 36  2  0  0  0  0
 36 35  1  0  0  0  0
M  END
>  <minimizedAffinity>
-9.76932812

>  <CNNscore>
0.238528475

>  <CNNaffinity>
6.42350578

$$$$

 OpenBabel09052614103D

 36 39  0  0  0  0  0  0  0  0999 V2000
   17.1370   35.0950  126.5060 N   0  0  0  0  0  0  0  0  0  0  0  0
   16.5250   35.8290  125.4980 C   0  0  0  0  0  0  0  0  0  0  0  0
   16.7770   35.7220  124.3060 O   0  0  0  0  0  0  0  0  0  0  0  0
   15.5950   36.7010  126.0440 N   0  0  0  0  0  0  0  0  0  0  0  0
   17.0590   35.4770  127.4350 H   0  0  0  0  0  0  0  0  0  0  0  0
   15.3120   36.5000  126.9910 H   0  0  0  0  0  0  0  0  0  0  0  0
   18.0390   34.0200  126.3530 C   0  0  0  0  0  0  0  0  0  0  0  0
   18.7190   31.7920  127.1550 C   0  0  0  0  0  0  0  0  0  0  0  0
   17.8850   32.9240  127.2160 C   0  0  0  0  0  0  0  0  0  0  0  0
   19.7070   31.7820  126.1620 C   0  0  0  0  0  0  0  0  0  0  0  0
   19.8740   32.8590  125.2730 C   0  0  0  0  0  0  0  0  0  0  0  0
   19.0370   33.9780  125.3840 C   0  0  0  0  0  0  0  0  0  0  0  0
   18.5130   30.7290  128.0520 N   0  0  0  0  0  0  0  0  0  0  0  0
   17.9020   29.5040  127.5360 C   0  0  0  0  0  0  0  0  0  0  0  0
   19.6440   30.4970  128.9580 C   0  0  0  0  0  0  0  0  0  0  0  0
   20.9620   32.8310  124.2300 C   0  0  0  0  0  0  0  0  0  0  0  0
   21.9490   31.9300  124.5090 F   0  0  0  0  0  0  0  0  0  0  0  0
   21.5880   34.0330  124.0990 F   0  0  0  0  0  0  0  0  0  0  0  0
   20.5090   32.5040  122.9890 F   0  0  0  0  0  0  0  0  0  0  0  0
   14.8470   37.6920  125.3730 C   0  0  0  0  0  0  0  0  0  0  0  0
   13.5990   37.4570  124.7780 C   0  0  0  0  0  0  0  0  0  0  0  0
   15.4180   38.9680  125.2810 C   0  0  0  0  0  0  0  0  0  0  0  0
   12.9020   38.4800  124.1130 C   0  0  0  0  0  0  0  0  0  0  0  0
   14.7240   39.9700  124.6150 C   0  0  0  0  0  0  0  0  0  0  0  0
   13.4630   39.7410  124.0550 C   0  0  0  0  0  0  0  0  0  0  0  0
   15.1530   41.3900  124.4180 C   0  0  0  0  0  0  0  0  0  0  0  0
   13.0040   40.9210  123.4420 N   0  0  0  0  0  0  0  0  0  0  0  0
   14.1180   41.8780  123.4030 C   0  0  0  0  0  0  0  0  0  0  0  0
   11.8300   41.2030  122.7650 C   0  0  0  0  0  0  0  0  0  0  0  0
   11.6190   40.8120  121.6160 O   0  0  0  0  0  0  0  0  0  0  0  0
   10.8040   42.0600  123.3750 C   0  0  0  0  0  0  0  0  0  0  0  0
    9.6260   41.5020  123.8710 C   0  0  0  0  0  0  0  0  0  0  0  0
   10.9380   43.4410  123.3810 C   0  0  0  0  0  0  0  0  0  0  0  0
    8.6510   42.3440  124.4010 C   0  0  0  0  0  0  0  0  0  0  0  0
   10.0050   44.2820  123.8940 N   0  0  0  0  0  0  0  0  0  0  0  0
    8.8860   43.7120  124.3940 C   0  0  0  0  0  0  0  0  0  0  0  0
  1  5  1  0  0  0  0
  2  4  1  0  0  0  0
  2  1  1  0  0  0  0
  3  2  2  0  0  0  0
  4  6  1  0  0  0  0
  7  1  1  0  0  0  0
  7  9  1  0  0  0  0
  8  9  2  0  0  0  0
  8 13  1  0  0  0  0
 10  8  1  0  0  0  0
 11 12  1  0  0  0  0
 11 10  2  0  0  0  0
 12  7  2  0  0  0  0
 13 15  1  0  0  0  0
 14 13  1  0  0  0  0
 16 17  1  0  0  0  0
 16 11  1  0  0  0  0
 18 16  1  0  0  0  0
 19 16  1  0  0  0  0
 20  4  1  0  0  0  0
 21 20  2  0  0  0  0
 22 20  1  0  0  0  0
 23 21  1  0  0  0  0
 24 22  2  0  0  0  0
 25 23  2  0  0  0  0
 25 24  1  0  0  0  0
 26 24  1  0  0  0  0
 27 25  1  0  0  0  0
 28 27  1  0  0  0  0
 28 26  1  0  0  0  0
 29 31  1  0  0  0  0
 29 27  1  0  0  0  0
 30 29  2  0  0  0  0
 31 33  2  0  0  0  0
 31 32  1  0  0  0  0
 32 34  2  0  0  0  0
 33 35  1  0  0  0  0
 35 36  2  0  0  0  0
 36 34  1  0  0  0  0
M  END
>  <minimizedAffinity>
-10.0980072

>  <CNNscore>
0.225964129

>  <CNNaffinity>
6.22908783

$$$$

 OpenBabel09052614103D

 36 39  0  0  0  0  0  0  0  0999 V2000
   13.1360   39.2300  123.7450 N   0  0  0  0  0  0  0  0  0  0  0  0
   14.1310   38.7940  124.6100 C   0  0  0  0  0  0  0  0  0  0  0  0
   14.7020   39.5000  125.4290 O   0  0  0  0  0  0  0  0  0  0  0  0
   14.3830   37.4450  124.4020 N   0  0  0  0  0  0  0  0  0  0  0  0
   12.9660   38.6440  122.9430 H   0  0  0  0  0  0  0  0  0  0  0  0
   13.6730   36.9420  123.8920 H   0  0  0  0  0  0  0  0  0  0  0  0
   12.5090   40.4940  123.7310 C   0  0  0  0  0  0  0  0  0  0  0  0
   12.8200   42.9280  123.5180 C   0  0  0  0  0  0  0  0  0  0  0  0
   13.3310   41.6180  123.5570 C   0  0  0  0  0  0  0  0  0  0  0  0
   11.4320   43.0730  123.6300 C   0  0  0  0  0  0  0  0  0  0  0  0
   10.5810   41.9640  123.7890 C   0  0  0  0  0  0  0  0  0  0  0  0
   11.1340   40.6770  123.8460 C   0  0  0  0  0  0  0  0  0  0  0  0
   13.7000   44.0110  123.3450 N   0  0  0  0  0  0  0  0  0  0  0  0
   14.0000   44.8450  124.5100 C   0  0  0  0  0  0  0  0  0  0  0  0
   14.8710   43.6910  122.5210 C   0  0  0  0  0  0  0  0  0  0  0  0
    9.0920   42.1530  123.9320 C   0  0  0  0  0  0  0  0  0  0  0  0
    8.4640   42.3770  122.7410 F   0  0  0  0  0  0  0  0  0  0  0  0
    8.7760   43.2160  124.7200 F   0  0  0  0  0  0  0  0  0  0  0  0
    8.4640   41.0760  124.4790 F   0  0  0  0  0  0  0  0  0  0  0  0
   15.3920   36.6570  124.9960 C   0  0  0  0  0  0  0  0  0  0  0  0
   15.2440   35.9960  126.2250 C   0  0  0  0  0  0  0  0  0  0  0  0
   16.6140   36.5690  124.3180 C   0  0  0  0  0  0  0  0  0  0  0  0
   16.2860   35.2320  126.7740 C   0  0  0  0  0  0  0  0  0  0  0  0
   17.6410   35.8180  124.8740 C   0  0  0  0  0  0  0  0  0  0  0  0
   17.4770   35.1300  126.0800 C   0  0  0  0  0  0  0  0  0  0  0  0
   19.0070   35.5920  124.3050 C   0  0  0  0  0  0  0  0  0  0  0  0
   18.6720   34.4650  126.4050 N   0  0  0  0  0  0  0  0  0  0  0  0
   19.7200   34.9360  125.4890 C   0  0  0  0  0  0  0  0  0  0  0  0
   19.0090   33.6610  127.4800 C   0  0  0  0  0  0  0  0  0  0  0  0
   19.5780   34.0980  128.4800 O   0  0  0  0  0  0  0  0  0  0  0  0
   18.7630   32.2120  127.4340 C   0  0  0  0  0  0  0  0  0  0  0  0
   18.3530   31.6060  126.2470 C   0  0  0  0  0  0  0  0  0  0  0  0
   18.8360   31.4380  128.5840 C   0  0  0  0  0  0  0  0  0  0  0  0
   18.0810   30.2400  126.2450 C   0  0  0  0  0  0  0  0  0  0  0  0
   18.5800   30.1070  128.6070 N   0  0  0  0  0  0  0  0  0  0  0  0
   18.2120   29.5400  127.4370 C   0  0  0  0  0  0  0  0  0  0  0  0
  1  2  1  0  0  0  0
  2  3  2  0  0  0  0
  4  2  1  0  0  0  0
  4 20  1  0  0  0  0
  5  1  1  0  0  0  0
  6  4  1  0  0  0  0
  7  1  1  0  0  0  0
  7 12  1  0  0  0  0
  8  9  1  0  0  0  0
  8 10  2  0  0  0  0
  9  7  2  0  0  0  0
 10 11  1  0  0  0  0
 11 12  2  0  0  0  0
 11 16  1  0  0  0  0
 13  8  1  0  0  0  0
 13 14  1  0  0  0  0
 15 13  1  0  0  0  0
 16 19  1  0  0  0  0
 16 18  1  0  0  0  0
 17 16  1  0  0  0  0
 20 21  1  0  0  0  0
 21 23  2  0  0  0  0
 22 24  1  0  0  0  0
 22 20  2  0  0  0  0
 24 25  2  0  0  0  0
 25 27  1  0  0  0  0
 25 23  1  0  0  0  0
 26 24  1  0  0  0  0
 26 28  1  0  0  0  0
 27 29  1  0  0  0  0
 28 27  1  0  0  0  0
 29 30  2  0  0  0  0
 31 29  1  0  0  0  0
 31 33  1  0  0  0  0
 32 31  2  0  0  0  0
 33 35  2  0  0  0  0
 34 32  1  0  0  0  0
 34 36  2  0  0  0  0
 36 35  1  0  0  0  0
M  END
>  <minimizedAffinity>
-8.57583809

>  <CNNscore>
0.214924872

>  <CNNaffinity>
6.2149148

$$$$

 OpenBabel09052614103D

 36 39  0  0  0  0  0  0  0  0999 V2000
   17.5180   35.1550  126.2000 N   0  0  0  0  0  0  0  0  0  0  0  0
   17.0140   35.8720  125.1230 C   0  0  0  0  0  0  0  0  0  0  0  0
   17.3130   35.6770  123.9540 O   0  0  0  0  0  0  0  0  0  0  0  0
   16.1300   36.8420  125.5730 N   0  0  0  0  0  0  0  0  0  0  0  0
   17.4270   35.5960  127.1020 H   0  0  0  0  0  0  0  0  0  0  0  0
   15.7870   36.7190  126.5130 H   0  0  0  0  0  0  0  0  0  0  0  0
   18.3410   34.0090  126.1540 C   0  0  0  0  0  0  0  0  0  0  0  0
   18.7960   31.7800  127.1000 C   0  0  0  0  0  0  0  0  0  0  0  0
   18.0520   32.9740  127.0570 C   0  0  0  0  0  0  0  0  0  0  0  0
   19.8350   31.6440  126.1710 C   0  0  0  0  0  0  0  0  0  0  0  0
   20.1380   32.6580  125.2440 C   0  0  0  0  0  0  0  0  0  0  0  0
   19.3860   33.8420  125.2510 C   0  0  0  0  0  0  0  0  0  0  0  0
   18.4560   30.7840  128.0320 N   0  0  0  0  0  0  0  0  0  0  0  0
   17.8220   29.5640  127.5320 C   0  0  0  0  0  0  0  0  0  0  0  0
   19.4930   30.5470  129.0430 C   0  0  0  0  0  0  0  0  0  0  0  0
   21.2780   32.4940  124.2720 C   0  0  0  0  0  0  0  0  0  0  0  0
   22.1740   33.5230  124.3190 F   0  0  0  0  0  0  0  0  0  0  0  0
   20.8560   32.4330  122.9800 F   0  0  0  0  0  0  0  0  0  0  0  0
   22.0080   31.3650  124.4860 F   0  0  0  0  0  0  0  0  0  0  0  0
   15.4930   37.8450  124.8100 C   0  0  0  0  0  0  0  0  0  0  0  0
   15.0960   39.0860  125.3300 C   0  0  0  0  0  0  0  0  0  0  0  0
   15.2270   37.5510  123.4670 C   0  0  0  0  0  0  0  0  0  0  0  0
   14.4570   40.0440  124.5260 C   0  0  0  0  0  0  0  0  0  0  0  0
   14.5870   38.5030  122.6830 C   0  0  0  0  0  0  0  0  0  0  0  0
   14.2260   39.7520  123.1950 C   0  0  0  0  0  0  0  0  0  0  0  0
   14.2250   38.3860  121.2360 C   0  0  0  0  0  0  0  0  0  0  0  0
   13.5930   40.5040  122.1880 N   0  0  0  0  0  0  0  0  0  0  0  0
   13.3280   39.6120  121.0510 C   0  0  0  0  0  0  0  0  0  0  0  0
   13.0640   41.7830  122.1970 C   0  0  0  0  0  0  0  0  0  0  0  0
   13.7480   42.7830  121.9760 O   0  0  0  0  0  0  0  0  0  0  0  0
   11.6560   42.0050  122.5540 C   0  0  0  0  0  0  0  0  0  0  0  0
   11.2000   41.7070  123.8370 C   0  0  0  0  0  0  0  0  0  0  0  0
   10.7340   42.4170  121.6010 C   0  0  0  0  0  0  0  0  0  0  0  0
    9.8500   41.8830  124.1330 C   0  0  0  0  0  0  0  0  0  0  0  0
    9.4170   42.5990  121.8640 N   0  0  0  0  0  0  0  0  0  0  0  0
    9.0080   42.3300  123.1240 C   0  0  0  0  0  0  0  0  0  0  0  0
  1  5  1  0  0  0  0
  2  4  1  0  0  0  0
  2  1  1  0  0  0  0
  3  2  2  0  0  0  0
  4  6  1  0  0  0  0
  7  1  1  0  0  0  0
  7  9  1  0  0  0  0
  8 13  1  0  0  0  0
  9  8  2  0  0  0  0
 10  8  1  0  0  0  0
 11 12  1  0  0  0  0
 11 10  2  0  0  0  0
 12  7  2  0  0  0  0
 13 15  1  0  0  0  0
 14 13  1  0  0  0  0
 16 17  1  0  0  0  0
 16 19  1  0  0  0  0
 16 11  1  0  0  0  0
 18 16  1  0  0  0  0
 20 21  1  0  0  0  0
 20  4  1  0  0  0  0
 22 20  2  0  0  0  0
 23 21  2  0  0  0  0
 24 25  2  0  0  0  0
 24 22  1  0  0  0  0
 25 23  1  0  0  0  0
 26 24  1  0  0  0  0
 27 29  1  0  0  0  0
 27 25  1  0  0  0  0
 28 26  1  0  0  0  0
 28 27  1  0  0  0  0
 29 31  1  0  0  0  0
 30 29  2  0  0  0  0
 31 32  1  0  0  0  0
 32 34  2  0  0  0  0
 33 35  1  0  0  0  0
 33 31  2  0  0  0  0
 35 36  2  0  0  0  0
 36 34  1  0  0  0  0
M  END
>  <minimizedAffinity>
-9.88374805

>  <CNNscore>
0.190748155

>  <CNNaffinity>
6.30886507

$$$$

 OpenBabel09052614103D

 36 39  0  0  0  0  0  0  0  0999 V2000
   17.2070   35.1640  126.4340 N   0  0  0  0  0  0  0  0  0  0  0  0
   16.6270   35.9010  125.4100 C   0  0  0  0  0  0  0  0  0  0  0  0
   16.8840   35.7670  124.2220 O   0  0  0  0  0  0  0  0  0  0  0  0
   15.7220   36.8120  125.9360 N   0  0  0  0  0  0  0  0  0  0  0  0
   17.1350   35.5630  127.3570 H   0  0  0  0  0  0  0  0  0  0  0  0
   15.4250   36.6350  126.8830 H   0  0  0  0  0  0  0  0  0  0  0  0
   18.0750   34.0580  126.3060 C   0  0  0  0  0  0  0  0  0  0  0  0
   18.6670   31.8160  127.1380 C   0  0  0  0  0  0  0  0  0  0  0  0
   17.8710   32.9760  127.1760 C   0  0  0  0  0  0  0  0  0  0  0  0
   19.6690   31.7640  126.1620 C   0  0  0  0  0  0  0  0  0  0  0  0
   19.8870   32.8260  125.2650 C   0  0  0  0  0  0  0  0  0  0  0  0
   19.0860   33.9740  125.3530 C   0  0  0  0  0  0  0  0  0  0  0  0
   18.4110   30.7700  128.0410 N   0  0  0  0  0  0  0  0  0  0  0  0
   17.8760   29.5170  127.5060 C   0  0  0  0  0  0  0  0  0  0  0  0
   19.4660   30.5890  129.0450 C   0  0  0  0  0  0  0  0  0  0  0  0
   20.9900   32.7520  124.2410 C   0  0  0  0  0  0  0  0  0  0  0  0
   21.9060   31.7770  124.5090 F   0  0  0  0  0  0  0  0  0  0  0  0
   21.7000   33.9110  124.1560 F   0  0  0  0  0  0  0  0  0  0  0  0
   20.5380   32.4930  122.9830 F   0  0  0  0  0  0  0  0  0  0  0  0
   15.0120   37.8160  125.2420 C   0  0  0  0  0  0  0  0  0  0  0  0
   13.8750   37.5660  124.4590 C   0  0  0  0  0  0  0  0  0  0  0  0
   15.5060   39.1230  125.3320 C   0  0  0  0  0  0  0  0  0  0  0  0
   13.2120   38.6040  123.7830 C   0  0  0  0  0  0  0  0  0  0  0  0
   14.8470   40.1400  124.6520 C   0  0  0  0  0  0  0  0  0  0  0  0
   13.6930   39.8940  123.9030 C   0  0  0  0  0  0  0  0  0  0  0  0
   15.2080   41.5920  124.6290 C   0  0  0  0  0  0  0  0  0  0  0  0
   13.2480   41.0950  123.3230 N   0  0  0  0  0  0  0  0  0  0  0  0
   14.2930   42.1100  123.5180 C   0  0  0  0  0  0  0  0  0  0  0  0
   12.1630   41.3720  122.5090 C   0  0  0  0  0  0  0  0  0  0  0  0
   11.0280   40.9680  122.7610 O   0  0  0  0  0  0  0  0  0  0  0  0
   12.3440   42.1070  121.2490 C   0  0  0  0  0  0  0  0  0  0  0  0
   13.4680   41.8770  120.4570 C   0  0  0  0  0  0  0  0  0  0  0  0
   11.4600   43.1080  120.8730 C   0  0  0  0  0  0  0  0  0  0  0  0
   13.6380   42.6220  119.2930 C   0  0  0  0  0  0  0  0  0  0  0  0
   11.6010   43.8450  119.7430 N   0  0  0  0  0  0  0  0  0  0  0  0
   12.6840   43.5810  118.9790 C   0  0  0  0  0  0  0  0  0  0  0  0
  1  5  1  0  0  0  0
  2  4  1  0  0  0  0
  2  1  1  0  0  0  0
  3  2  2  0  0  0  0
  4  6  1  0  0  0  0
  7  1  1  0  0  0  0
  7  9  1  0  0  0  0
  8  9  2  0  0  0  0
  8 13  1  0  0  0  0
 10  8  1  0  0  0  0
 11 12  1  0  0  0  0
 11 10  2  0  0  0  0
 12  7  2  0  0  0  0
 13 15  1  0  0  0  0
 14 13  1  0  0  0  0
 16 17  1  0  0  0  0
 16 11  1  0  0  0  0
 18 16  1  0  0  0  0
 19 16  1  0  0  0  0
 20 22  1  0  0  0  0
 20  4  1  0  0  0  0
 21 20  2  0  0  0  0
 23 25  2  0  0  0  0
 23 21  1  0  0  0  0
 24 22  2  0  0  0  0
 25 24  1  0  0  0  0
 26 24  1  0  0  0  0
 27 28  1  0  0  0  0
 27 25  1  0  0  0  0
 28 26  1  0  0  0  0
 29 30  2  0  0  0  0
 29 27  1  0  0  0  0
 31 29  1  0  0  0  0
 32 31  2  0  0  0  0
 33 31  1  0  0  0  0
 34 32  1  0  0  0  0
 35 33  2  0  0  0  0
 36 34  2  0  0  0  0
 36 35  1  0  0  0  0
M  END
>  <minimizedAffinity>
-9.8708086

>  <CNNscore>
0.172881529

>  <CNNaffinity>
6.17219114

$$$$
