CYSVSRXTDDJXNQ-KYZUINATSA-N
     RDKit          3D

 21 24  0  0  0  0  0  0  0  0999 V2000
   -5.7890   30.4030  -31.4300 N   0  0  0  0  0  0  0  0  0  0  0  0
   -4.8950   29.5100  -30.9170 C   0  0  0  0  0  0  0  0  0  0  0  0
   -3.8600   29.8980  -30.3910 O   0  0  0  0  0  0  0  0  0  0  0  0
   -5.3000   28.0480  -31.0520 C   0  0  2  0  0  0  0  0  0  0  0  0
   -4.2020   27.1410  -30.4810 C   0  0  0  0  0  0  0  0  0  0  0  0
   -4.5440   25.6620  -30.6480 C   0  0  0  0  0  0  0  0  0  0  0  0
   -4.8460   25.3040  -32.1120 C   0  0  1  0  0  0  0  0  0  0  0  0
   -5.2040   23.8650  -32.2630 C   0  0  0  0  0  0  0  0  0  0  0  0
   -6.2160   23.4570  -33.1180 N   0  0  0  0  0  0  0  0  0  0  0  0
   -6.3230   22.1280  -33.0610 N   0  0  0  0  0  0  0  0  0  0  0  0
   -5.3940   21.7010  -32.1890 N   0  0  0  0  0  0  0  0  0  0  0  0
   -5.1750   20.3600  -31.8470 C   0  0  0  0  0  0  0  0  0  0  0  0
   -4.2500   19.9910  -30.9870 N   0  0  0  0  0  0  0  0  0  0  0  0
   -3.5160   21.0160  -30.4550 C   0  0  0  0  0  0  0  0  0  0  0  0
   -2.5080   20.8370  -29.5470 N   0  0  0  0  0  0  0  0  0  0  0  0
   -1.9720   22.0640  -29.2140 C   0  0  0  0  0  0  0  0  0  0  0  0
   -2.6430   23.0490  -29.9160 C   0  0  0  0  0  0  0  0  0  0  0  0
   -3.6000   22.3790  -30.6820 C   0  0  0  0  0  0  0  0  0  0  0  0
   -4.6830   22.7480  -31.6770 C   0  0  0  0  0  0  0  0  0  0  0  0
   -5.9470   26.2140  -32.6760 C   0  0  0  0  0  0  0  0  0  0  0  0
   -5.5940   27.6910  -32.5130 C   0  0  0  0  0  0  0  0  0  0  0  0
  1  2  1  0
  2  3  2  0
  4  2  1  1
  4  5  1  0
  5  6  1  0
  6  7  1  0
  7  8  1  6
  8  9  1  0
  9 10  2  0
 10 11  1  0
 11 12  1  0
 12 13  2  0
 13 14  1  0
 14 15  1  0
 15 16  1  0
 16 17  2  0
 17 18  1  0
 18 19  1  0
  7 20  1  0
 20 21  1  0
 21  4  1  0
 19  8  2  0
 19 11  1  0
 18 14  2  0
M  END
$$$$
