HGOOOJAHOUQCDO-UHFFFAOYSA-N
     RDKit          3D

 30 33  0  0  0  0  0  0  0  0999 V2000
   16.3790    1.7040   -0.7010 O   0  0  0  0  0  0  0  0  0  0  0  0
   15.4500    2.1030   -1.3830 C   0  0  0  0  0  0  0  0  0  0  0  0
   14.9760    3.3580   -1.2030 O   0  0  0  0  0  0  0  0  0  0  0  0
   14.6950    1.3640   -2.4730 C   0  0  0  0  0  0  0  0  0  0  0  0
   13.4670    0.8590   -1.9640 O   0  0  0  0  0  0  0  0  0  0  0  0
   12.3340    1.1570   -2.6700 C   0  0  0  0  0  0  0  0  0  0  0  0
   11.0930    1.4970   -2.1320 C   0  0  0  0  0  0  0  0  0  0  0  0
   10.0130    1.7760   -2.9760 C   0  0  0  0  0  0  0  0  0  0  0  0
   10.1600    1.7230   -4.3680 C   0  0  0  0  0  0  0  0  0  0  0  0
    8.9860    2.0040   -5.2770 C   0  0  0  0  0  0  0  0  0  0  0  0
    8.3380    3.3730   -5.0370 C   0  0  0  0  0  0  0  0  0  0  0  0
    8.7370    4.4150   -6.0540 C   0  0  0  0  0  0  0  0  0  0  0  0
   10.0170    4.4190   -6.6080 C   0  0  0  0  0  0  0  0  0  0  0  0
   10.3780    5.3750   -7.5690 C   0  0  0  0  0  0  0  0  0  0  0  0
    9.4750    6.3560   -8.0140 C   0  0  0  0  0  0  0  0  0  0  0  0
    9.8450    7.3260   -8.9990 N   0  0  0  0  0  0  0  0  0  0  0  0
    9.8580    8.6940   -8.8010 C   0  0  0  0  0  0  0  0  0  0  0  0
    9.5900    9.3860   -7.8340 O   0  0  0  0  0  0  0  0  0  0  0  0
   10.2970    9.3100  -10.0480 C   0  0  0  0  0  0  0  0  0  0  0  0
   10.4820   10.6410  -10.3730 C   0  0  0  0  0  0  0  0  0  0  0  0
   10.9210   10.9310  -11.6680 C   0  0  0  0  0  0  0  0  0  0  0  0
   11.1620    9.8980  -12.5950 C   0  0  0  0  0  0  0  0  0  0  0  0
   10.9660    8.5600  -12.2390 C   0  0  0  0  0  0  0  0  0  0  0  0
   10.5320    8.3020  -10.9530 C   0  0  0  0  0  0  0  0  0  0  0  0
   10.2410    7.0350  -10.2910 C   0  0  0  0  0  0  0  0  0  0  0  0
   10.3600    5.9840  -10.8970 O   0  0  0  0  0  0  0  0  0  0  0  0
    8.1920    6.3310   -7.4460 C   0  0  0  0  0  0  0  0  0  0  0  0
    7.8260    5.3790   -6.4840 C   0  0  0  0  0  0  0  0  0  0  0  0
   11.4060    1.3800   -4.9020 C   0  0  0  0  0  0  0  0  0  0  0  0
   12.4830    1.1000   -4.0580 C   0  0  0  0  0  0  0  0  0  0  0  0
  1  2  2  0
  2  3  1  0
  2  4  1  0
  4  5  1  0
  5  6  1  0
  6  7  2  0
  7  8  1  0
  8  9  2  0
  9 10  1  0
 10 11  1  0
 11 12  1  0
 12 13  2  0
 13 14  1  0
 14 15  2  0
 15 16  1  0
 16 17  1  0
 17 18  2  0
 17 19  1  0
 19 20  2  0
 20 21  1  0
 21 22  2  0
 22 23  1  0
 23 24  2  0
 24 25  1  0
 25 26  2  0
 15 27  1  0
 27 28  2  0
  9 29  1  0
 29 30  2  0
 30  6  1  0
 28 12  1  0
 25 16  1  0
 24 19  1  0
M  END
$$$$
