GIXMGPYDKTUODZ-SFHVURJKSA-N
     RDKit          3D

 30 33  0  0  0  0  0  0  0  0999 V2000
   -7.4270   -8.3690  -33.0870 C   0  0  0  0  0  0  0  0  0  0  0  0
   -8.5810   -7.9210  -32.3880 O   0  0  0  0  0  0  0  0  0  0  0  0
   -8.5790   -8.0730  -31.0280 C   0  0  0  0  0  0  0  0  0  0  0  0
   -9.6340   -7.7830  -30.1670 C   0  0  0  0  0  0  0  0  0  0  0  0
   -9.5040   -8.0030  -28.7870 C   0  0  0  0  0  0  0  0  0  0  0  0
   -8.3190   -8.5210  -28.2380 C   0  0  0  0  0  0  0  0  0  0  0  0
   -8.1310   -8.7910  -26.7950 C   0  0  0  0  0  0  0  0  0  0  0  0
   -8.8180   -8.1870  -25.8430 N   0  0  0  0  0  0  0  0  0  0  0  0
   -8.4150   -8.6140  -24.5860 C   0  0  0  0  0  0  0  0  0  0  0  0
   -9.1110   -8.0240  -23.3970 C   0  0  0  0  0  0  0  0  0  0  0  0
   -8.7480   -8.7410  -22.0970 C   0  0  0  0  0  0  0  0  0  0  0  0
   -8.8580   -7.8090  -21.0140 O   0  0  0  0  0  0  0  0  0  0  0  0
   -7.7590   -7.0350  -20.7530 C   0  0  0  0  0  0  0  0  0  0  0  0
   -8.0550   -5.7590  -20.2420 C   0  0  0  0  0  0  0  0  0  0  0  0
   -7.0400   -4.8510  -19.9280 C   0  0  0  0  0  0  0  0  0  0  0  0
   -5.7270   -5.2370  -20.1380 C   0  0  0  0  0  0  0  0  0  0  0  0
   -5.4270   -6.5020  -20.6540 C   0  0  0  0  0  0  0  0  0  0  0  0
   -6.4300   -7.4080  -20.9730 C   0  0  0  0  0  0  0  0  0  0  0  0
   -3.9510   -6.6690  -20.8340 C   0  0  0  0  0  0  0  0  0  0  0  0
   -3.4120   -5.5560  -19.9220 C   0  0  0  0  0  0  0  0  0  0  0  0
   -4.4770   -4.4320  -19.8970 C   0  0  1  0  0  0  0  0  0  0  0  0
   -4.2700   -3.3810  -20.9890 C   0  0  0  0  0  0  0  0  0  0  0  0
   -3.9970   -2.0230  -20.4000 C   0  0  0  0  0  0  0  0  0  0  0  0
   -4.6980   -1.0260  -20.4690 O   0  0  0  0  0  0  0  0  0  0  0  0
   -2.8260   -1.9920  -19.7300 O   0  0  0  0  0  0  0  0  0  0  0  0
   -7.3990   -9.5540  -24.5940 C   0  0  0  0  0  0  0  0  0  0  0  0
   -6.7190  -10.2370  -23.4600 C   0  0  0  0  0  0  0  0  0  0  0  0
   -6.9710   -9.9230  -26.2100 S   0  0  0  0  0  0  0  0  0  0  0  0
   -7.2640   -8.7980  -29.1220 C   0  0  0  0  0  0  0  0  0  0  0  0
   -7.3930   -8.5800  -30.4970 C   0  0  0  0  0  0  0  0  0  0  0  0
  1  2  1  0
  2  3  1  0
  3  4  2  0
  4  5  1  0
  5  6  2  0
  6  7  1  0
  7  8  2  0
  8  9  1  0
  9 10  1  0
 10 11  1  0
 11 12  1  0
 12 13  1  0
 13 14  2  0
 14 15  1  0
 15 16  2  0
 16 17  1  0
 17 18  2  0
 17 19  1  0
 19 20  1  0
 20 21  1  0
 21 22  1  6
 22 23  1  0
 23 24  2  0
 23 25  1  0
  9 26  2  0
 26 27  1  0
 26 28  1  0
  6 29  1  0
 29 30  2  0
 30  3  1  0
 28  7  1  0
 18 13  1  0
 21 16  1  0
M  END
$$$$
