PJDCIIPPRINIGB-RMKNXTFCSA-N
     RDKit          3D

 29 31  0  0  0  0  0  0  0  0999 V2000
   13.0700    8.2130   25.4590 C   0  0  0  0  0  0  0  0  0  0  0  0
   11.5790    7.8910   25.5550 C   0  0  0  0  0  0  0  0  0  0  0  0
   10.8710    7.6060   24.2930 N   0  0  0  0  0  0  0  0  0  0  0  0
   11.7510    7.7670   23.1270 C   0  0  0  0  0  0  0  0  0  0  0  0
   11.6030    6.6130   22.1390 C   0  0  0  0  0  0  0  0  0  0  0  0
   10.2010    6.2970   24.3100 C   0  0  0  0  0  0  0  0  0  0  0  0
   10.7670    5.3190   25.3050 C   0  0  0  0  0  0  0  0  0  0  0  0
   11.3960    4.1660   25.0200 C   0  0  0  0  0  0  0  0  0  0  0  0
   11.9210    3.2930   26.1070 C   0  0  0  0  0  0  0  0  0  0  0  0
   12.6020    2.3060   25.8570 O   0  0  0  0  0  0  0  0  0  0  0  0
   11.5610    3.7600   27.3550 N   0  0  0  0  0  0  0  0  0  0  0  0
   11.8530    3.1700   28.6030 C   0  0  0  0  0  0  0  0  0  0  0  0
   13.1340    3.3560   29.1170 C   0  0  0  0  0  0  0  0  0  0  0  0
   13.4880    2.7930   30.3480 C   0  0  0  0  0  0  0  0  0  0  0  0
   12.5950    2.0410   31.0960 C   0  0  0  0  0  0  0  0  0  0  0  0
   13.0110    1.5440   32.2620 N   0  0  0  0  0  0  0  0  0  0  0  0
   12.1160    0.8380   32.9620 C   0  0  0  0  0  0  0  0  0  0  0  0
   10.8580    0.5810   32.6000 N   0  0  0  0  0  0  0  0  0  0  0  0
   10.4490    1.0690   31.4140 C   0  0  0  0  0  0  0  0  0  0  0  0
    9.1260    0.8140   30.9910 N   0  0  0  0  0  0  0  0  0  0  0  0
    7.8940    0.9740   31.6490 C   0  0  0  0  0  0  0  0  0  0  0  0
    7.1130   -0.1650   31.9100 C   0  0  0  0  0  0  0  0  0  0  0  0
    5.8660   -0.0650   32.5370 C   0  0  0  0  0  0  0  0  0  0  0  0
    5.3740    1.1820   32.9070 C   0  0  0  0  0  0  0  0  0  0  0  0
    6.1290    2.3200   32.6410 C   0  0  0  0  0  0  0  0  0  0  0  0
    5.4560    4.0210   33.1250 Br  0  0  0  0  0  0  0  0  0  0  0  0
    7.3750    2.2210   32.0150 C   0  0  0  0  0  0  0  0  0  0  0  0
   11.3020    1.8430   30.5980 C   0  0  0  0  0  0  0  0  0  0  0  0
   10.9420    2.4250   29.3490 C   0  0  0  0  0  0  0  0  0  0  0  0
  1  2  1  0
  2  3  1  0
  3  4  1  0
  4  5  1  0
  3  6  1  0
  6  7  1  0
  7  8  2  0
  8  9  1  0
  9 10  2  0
  9 11  1  0
 11 12  1  0
 12 13  2  0
 13 14  1  0
 14 15  2  0
 15 16  1  0
 16 17  2  0
 17 18  1  0
 18 19  2  0
 19 20  1  0
 20 21  1  0
 21 22  2  0
 22 23  1  0
 23 24  2  0
 24 25  1  0
 25 26  1  0
 25 27  2  0
 19 28  1  0
 28 29  2  0
 29 12  1  0
 28 15  1  0
 27 21  1  0
M  END
$$$$
