DOKSDSNRXIBXCC-WYMLVPIESA-N
     RDKit          3D

 33 35  0  0  0  0  0  0  0  0999 V2000
  143.1370  108.9680   34.8080 C   0  0  0  0  0  0  0  0  0  0  0  0
  142.5890  107.5700   34.5680 C   0  0  0  0  0  0  0  0  0  0  0  0
  141.6050  107.1950   35.5740 N   0  0  0  0  0  0  0  0  0  0  0  0
  142.0320  106.3340   36.6740 C   0  0  0  0  0  0  0  0  0  0  0  0
  142.7810  107.1180   37.7400 C   0  0  0  0  0  0  0  0  0  0  0  0
  140.2950  107.6470   35.4400 C   0  0  0  0  0  0  0  0  0  0  0  0
  139.9160  108.3340   34.4950 O   0  0  0  0  0  0  0  0  0  0  0  0
  139.4900  107.2580   36.5070 O   0  0  0  0  0  0  0  0  0  0  0  0
  138.5010  108.1940   36.8210 C   0  0  0  0  0  0  0  0  0  0  0  0
  137.2430  108.0410   36.2380 C   0  0  0  0  0  0  0  0  0  0  0  0
  136.2480  108.9760   36.5130 C   0  0  0  0  0  0  0  0  0  0  0  0
  136.5170  110.0630   37.3580 C   0  0  0  0  0  0  0  0  0  0  0  0
  135.4920  111.0710   37.6500 C   0  0  0  0  0  0  0  0  0  0  0  0
  135.6490  112.3680   37.3450 C   0  0  0  0  0  0  0  0  0  0  0  0
  134.5440  113.3230   37.6190 C   0  0  0  0  0  0  0  0  0  0  0  0
  133.4610  113.1760   37.0550 O   0  0  0  0  0  0  0  0  0  0  0  0
  134.8050  114.3640   38.4990 N   0  0  0  0  0  0  0  0  0  0  0  0
  136.0150  114.5350   39.3050 C   0  0  0  0  0  0  0  0  0  0  0  0
  135.6800  114.8170   40.7700 C   0  0  0  0  0  0  0  0  0  0  0  0
  134.6940  115.9880   40.9170 C   0  0  0  0  0  0  0  0  0  0  0  0
  134.2810  116.2190   42.3840 C   0  0  0  0  0  0  0  0  0  0  0  0
  133.2090  115.2710   42.8670 C   0  0  0  0  0  0  0  0  0  0  0  0
  131.9110  115.7360   43.1260 C   0  0  0  0  0  0  0  0  0  0  0  0
  130.9240  114.8630   43.5810 C   0  0  0  0  0  0  0  0  0  0  0  0
  131.2210  113.5150   43.7800 C   0  0  0  0  0  0  0  0  0  0  0  0
  132.5060  113.0420   43.5220 C   0  0  0  0  0  0  0  0  0  0  0  0
  133.4950  113.9150   43.0680 C   0  0  0  0  0  0  0  0  0  0  0  0
  133.4470  115.7120   40.0590 C   0  0  0  0  0  0  0  0  0  0  0  0
  133.8260  115.4430   38.6070 C   0  0  0  0  0  0  0  0  0  0  0  0
  137.8010  110.2180   37.9090 C   0  0  0  0  0  0  0  0  0  0  0  0
  138.8050  109.2820   37.6500 C   0  0  0  0  0  0  0  0  0  0  0  0
  140.0880  109.3430   38.1250 O   0  0  0  0  0  0  0  0  0  0  0  0
  140.8890  110.4240   37.6650 C   0  0  0  0  0  0  0  0  0  0  0  0
  1  2  1  0
  2  3  1  0
  3  4  1  0
  4  5  1  0
  3  6  1  0
  6  7  2  0
  6  8  1  0
  8  9  1  0
  9 10  2  0
 10 11  1  0
 11 12  2  0
 12 13  1  0
 13 14  2  0
 14 15  1  0
 15 16  2  0
 15 17  1  0
 17 18  1  0
 18 19  1  0
 19 20  1  0
 20 21  1  0
 21 22  1  0
 22 23  2  0
 23 24  1  0
 24 25  2  0
 25 26  1  0
 26 27  2  0
 20 28  1  0
 28 29  1  0
 12 30  1  0
 30 31  2  0
 31 32  1  0
 32 33  1  0
 31  9  1  0
 29 17  1  0
 27 22  1  0
M  END
$$$$
