NNFDRCGXLJTASH-UHFFFAOYSA-N
     RDKit          3D

 38 42  0  0  0  0  0  0  0  0999 V2000
    7.3360    3.1580   32.5220 C   0  0  0  0  0  0  0  0  0  0  0  0
    8.5720    2.6940   31.8060 C   0  0  0  0  0  0  0  0  0  0  0  0
    8.5610    2.5490   30.4110 C   0  0  0  0  0  0  0  0  0  0  0  0
    9.6930    2.0860   29.7380 C   0  0  0  0  0  0  0  0  0  0  0  0
   10.8400    1.7670   30.4680 C   0  0  0  0  0  0  0  0  0  0  0  0
   12.2970    1.1830   29.6290 S   0  0  0  0  0  0  0  0  0  0  0  0
   13.3930    1.2770   30.5760 O   0  0  0  0  0  0  0  0  0  0  0  0
   11.9740   -0.0870   29.0030 O   0  0  0  0  0  0  0  0  0  0  0  0
   12.5970    2.3440   28.3190 C   0  0  0  0  0  0  0  0  0  0  0  0
   11.5950    2.6230   27.3880 C   0  0  0  0  0  0  0  0  0  0  0  0
   11.8610    3.5040   26.3390 C   0  0  0  0  0  0  0  0  0  0  0  0
   13.1240    4.1090   26.2130 C   0  0  0  0  0  0  0  0  0  0  0  0
   13.4490    5.0390   25.0370 C   0  0  1  0  0  0  0  0  0  0  0  0
   13.3460    6.5080   25.4680 C   0  0  0  0  0  0  0  0  0  0  0  0
   12.0500    7.0050   26.0350 C   0  0  0  0  0  0  0  0  0  0  0  0
   11.8850    7.1830   27.2400 O   0  0  0  0  0  0  0  0  0  0  0  0
   10.9160    7.2610   25.1200 C   0  0  0  0  0  0  0  0  0  0  0  0
    9.7990    6.4210   25.0950 C   0  0  0  0  0  0  0  0  0  0  0  0
    8.7460    6.6990   24.2230 C   0  0  0  0  0  0  0  0  0  0  0  0
    8.8180    7.8000   23.3670 C   0  0  0  0  0  0  0  0  0  0  0  0
    9.9450    8.6230   23.3740 C   0  0  0  0  0  0  0  0  0  0  0  0
   10.9990    8.3500   24.2460 C   0  0  0  0  0  0  0  0  0  0  0  0
   14.4250    7.3310   25.4380 C   0  0  0  0  0  0  0  0  0  0  0  0
   14.3970    8.6170   25.8820 N   0  0  0  0  0  0  0  0  0  0  0  0
   15.6160    6.8440   24.9490 N   0  0  0  0  0  0  0  0  0  0  0  0
   15.8100    5.5830   24.4260 C   0  0  0  0  0  0  0  0  0  0  0  0
   14.7960    4.6980   24.4220 C   0  0  0  0  0  0  0  0  0  0  0  0
   14.9530    3.3950   23.7240 C   0  0  0  0  0  0  0  0  0  0  0  0
   13.9720    2.6780   23.5170 O   0  0  0  0  0  0  0  0  0  0  0  0
   16.3130    3.0090   23.1760 C   0  0  0  0  0  0  0  0  0  0  0  0
   17.4810    3.7520   23.8470 C   0  0  0  0  0  0  0  0  0  0  0  0
   18.7680    3.5120   23.0350 C   0  0  0  0  0  0  0  0  0  0  0  0
   17.7120    3.2130   25.2740 C   0  0  0  0  0  0  0  0  0  0  0  0
   17.1760    5.2640   23.8730 C   0  0  0  0  0  0  0  0  0  0  0  0
   14.1060    3.8420   27.1840 C   0  0  0  0  0  0  0  0  0  0  0  0
   13.8460    2.9640   28.2350 C   0  0  0  0  0  0  0  0  0  0  0  0
   10.8600    1.8850   31.8600 C   0  0  0  0  0  0  0  0  0  0  0  0
    9.7230    2.3470   32.5250 C   0  0  0  0  0  0  0  0  0  0  0  0
  1  2  1  0
  2  3  2  0
  3  4  1  0
  4  5  2  0
  5  6  1  0
  6  7  2  0
  6  8  2  0
  6  9  1  0
  9 10  2  0
 10 11  1  0
 11 12  2  0
 13 12  1  1
 13 14  1  0
 14 15  1  0
 15 16  2  0
 15 17  1  0
 17 18  2  0
 18 19  1  0
 19 20  2  0
 20 21  1  0
 21 22  2  0
 14 23  2  0
 23 24  1  0
 23 25  1  0
 25 26  1  0
 26 27  2  0
 27 28  1  0
 28 29  2  0
 28 30  1  0
 30 31  1  0
 31 32  1  0
 31 33  1  0
 31 34  1  0
 12 35  1  0
 35 36  2  0
  5 37  1  0
 37 38  2  0
 38  2  1  0
 36  9  1  0
 27 13  1  0
 22 17  1  0
 34 26  1  0
M  END
$$$$
