SUSIJEPKDLCOFC-UHFFFAOYSA-N
     RDKit          3D

 31 33  0  0  0  0  0  0  0  0999 V2000
   40.2540  -39.5960  105.1320 C   0  0  0  0  0  0  0  0  0  0  0  0
   40.5940  -39.3830  103.6630 C   0  0  0  0  0  0  0  0  0  0  0  0
   42.0700  -39.0520  103.4220 C   0  0  0  0  0  0  0  0  0  0  0  0
   42.8250  -40.1360  102.6950 C   0  0  0  0  0  0  0  0  0  0  0  0
   43.4510  -41.2090  103.3730 C   0  0  0  0  0  0  0  0  0  0  0  0
   43.3320  -41.1750  104.7410 O   0  0  0  0  0  0  0  0  0  0  0  0
   44.5310  -41.2170  105.5180 C   0  0  0  0  0  0  0  0  0  0  0  0
   44.2680  -40.4490  106.8110 C   0  0  0  0  0  0  0  0  0  0  0  0
   44.2970  -38.9400  106.5990 C   0  0  0  0  0  0  0  0  0  0  0  0
   44.0440  -38.2440  107.8470 N   0  0  0  0  0  0  0  0  0  0  0  0
   42.7950  -38.1350  108.4310 C   0  0  0  0  0  0  0  0  0  0  0  0
   42.2420  -39.1100  109.2670 C   0  0  0  0  0  0  0  0  0  0  0  0
   40.9560  -38.9680  109.8020 C   0  0  0  0  0  0  0  0  0  0  0  0
   40.1820  -37.8420  109.5070 C   0  0  0  0  0  0  0  0  0  0  0  0
   38.7910  -37.6930  110.0730 C   0  0  0  0  0  0  0  0  0  0  0  0
   37.6940  -37.8020  109.0420 C   0  0  0  0  0  0  0  0  0  0  0  0
   37.2550  -36.9370  108.3030 O   0  0  0  0  0  0  0  0  0  0  0  0
   37.1820  -39.0520  108.9900 O   0  0  0  0  0  0  0  0  0  0  0  0
   40.7140  -36.8710  108.6550 C   0  0  0  0  0  0  0  0  0  0  0  0
   42.0010  -37.0220  108.1260 C   0  0  0  0  0  0  0  0  0  0  0  0
   44.1370  -42.2070  102.6670 C   0  0  0  0  0  0  0  0  0  0  0  0
   44.2250  -42.1850  101.2660 C   0  0  0  0  0  0  0  0  0  0  0  0
   43.6080  -41.1330  100.5750 C   0  0  0  0  0  0  0  0  0  0  0  0
   43.4480  -40.7310   99.2200 C   0  0  0  0  0  0  0  0  0  0  0  0
   43.9600  -41.4270   98.0100 C   0  0  0  0  0  0  0  0  0  0  0  0
   42.9870  -41.7740   97.1270 F   0  0  0  0  0  0  0  0  0  0  0  0
   44.6260  -42.5710   98.3290 F   0  0  0  0  0  0  0  0  0  0  0  0
   44.8440  -40.6550   97.3170 F   0  0  0  0  0  0  0  0  0  0  0  0
   42.7270  -39.5990   99.1360 N   0  0  0  0  0  0  0  0  0  0  0  0
   42.4180  -39.2490  100.4360 O   0  0  0  0  0  0  0  0  0  0  0  0
   42.9420  -40.1630  101.2990 C   0  0  0  0  0  0  0  0  0  0  0  0
  1  2  1  0
  2  3  1  0
  3  4  1  0
  4  5  2  0
  5  6  1  0
  6  7  1  0
  7  8  1  0
  8  9  1  0
  9 10  1  0
 10 11  1  0
 11 12  2  0
 12 13  1  0
 13 14  2  0
 14 15  1  0
 15 16  1  0
 16 17  2  0
 16 18  1  0
 14 19  1  0
 19 20  2  0
  5 21  1  0
 21 22  2  0
 22 23  1  0
 23 24  1  0
 24 25  1  0
 25 26  1  0
 25 27  1  0
 25 28  1  0
 24 29  2  0
 29 30  1  0
 30 31  1  0
 31  4  1  0
 20 11  1  0
 31 23  2  0
M  END
$$$$
