SUSIJEPKDLCOFC-UHFFFAOYSA-N
     RDKit          3D

 31 33  0  0  0  0  0  0  0  0999 V2000
   39.6840  -39.1980  103.9370 C   0  0  0  0  0  0  0  0  0  0  0  0
   40.7820  -40.2330  104.1430 C   0  0  0  0  0  0  0  0  0  0  0  0
   42.1880  -39.6900  103.8690 C   0  0  0  0  0  0  0  0  0  0  0  0
   42.9440  -40.4620  102.8180 C   0  0  0  0  0  0  0  0  0  0  0  0
   43.8020  -41.5390  103.1410 C   0  0  0  0  0  0  0  0  0  0  0  0
   43.9060  -41.8120  104.4830 O   0  0  0  0  0  0  0  0  0  0  0  0
   45.0630  -42.5190  104.9350 C   0  0  0  0  0  0  0  0  0  0  0  0
   45.1480  -42.3430  106.4490 C   0  0  0  0  0  0  0  0  0  0  0  0
   45.4410  -40.8990  106.8440 C   0  0  0  0  0  0  0  0  0  0  0  0
   46.8610  -40.7100  107.0710 N   0  0  0  0  0  0  0  0  0  0  0  0
   47.4480  -39.4780  107.3020 C   0  0  0  0  0  0  0  0  0  0  0  0
   46.7490  -38.3620  107.7730 C   0  0  0  0  0  0  0  0  0  0  0  0
   47.3840  -37.1270  107.9530 C   0  0  0  0  0  0  0  0  0  0  0  0
   48.7420  -36.9740  107.6570 C   0  0  0  0  0  0  0  0  0  0  0  0
   49.4250  -35.6410  107.8390 C   0  0  0  0  0  0  0  0  0  0  0  0
   48.6130  -34.6360  108.6190 C   0  0  0  0  0  0  0  0  0  0  0  0
   48.6190  -34.4190  109.8180 O   0  0  0  0  0  0  0  0  0  0  0  0
   47.7990  -33.9200  107.8120 O   0  0  0  0  0  0  0  0  0  0  0  0
   49.4460  -38.0760  107.1640 C   0  0  0  0  0  0  0  0  0  0  0  0
   48.8020  -39.3060  106.9890 C   0  0  0  0  0  0  0  0  0  0  0  0
   44.4840  -42.2450  102.1400 C   0  0  0  0  0  0  0  0  0  0  0  0
   44.3380  -41.9160  100.7830 C   0  0  0  0  0  0  0  0  0  0  0  0
   43.4890  -40.8550  100.4410 C   0  0  0  0  0  0  0  0  0  0  0  0
   43.0600  -40.2090   99.2480 C   0  0  0  0  0  0  0  0  0  0  0  0
   43.4500  -40.5440   97.8540 C   0  0  0  0  0  0  0  0  0  0  0  0
   42.9020  -41.7010   97.3980 F   0  0  0  0  0  0  0  0  0  0  0  0
   44.7990  -40.6720   97.7250 F   0  0  0  0  0  0  0  0  0  0  0  0
   43.0760  -39.5730   96.9750 F   0  0  0  0  0  0  0  0  0  0  0  0
   42.1970  -39.2140   99.5240 N   0  0  0  0  0  0  0  0  0  0  0  0
   42.0640  -39.1980  100.8990 O   0  0  0  0  0  0  0  0  0  0  0  0
   42.8330  -40.1770  101.4500 C   0  0  0  0  0  0  0  0  0  0  0  0
  1  2  1  0
  2  3  1  0
  3  4  1  0
  4  5  2  0
  5  6  1  0
  6  7  1  0
  7  8  1  0
  8  9  1  0
  9 10  1  0
 10 11  1  0
 11 12  2  0
 12 13  1  0
 13 14  2  0
 14 15  1  0
 15 16  1  0
 16 17  2  0
 16 18  1  0
 14 19  1  0
 19 20  2  0
  5 21  1  0
 21 22  2  0
 22 23  1  0
 23 24  1  0
 24 25  1  0
 25 26  1  0
 25 27  1  0
 25 28  1  0
 24 29  2  0
 29 30  1  0
 30 31  1  0
 31  4  1  0
 20 11  1  0
 31 23  2  0
M  END
$$$$
