FEKRWNWZMOSVBX-UHFFFAOYSA-N
     RDKit          3D

 26 29  0  0  0  0  0  0  0  0999 V2000
   -6.2950   18.4950   27.0900 N   0  0  0  0  0  0  0  0  0  0  0  0
   -7.2360   17.7680   26.5740 C   0  0  0  0  0  0  0  0  0  0  0  0
   -8.4650   17.8130   27.1460 N   0  0  0  0  0  0  0  0  0  0  0  0
   -6.9350   16.9240   25.3640 C   0  0  0  0  0  0  0  0  0  0  0  0
   -6.0760   15.8210   25.5720 C   0  0  0  0  0  0  0  0  0  0  0  0
   -5.7240   14.9760   24.5030 C   0  0  0  0  0  0  0  0  0  0  0  0
   -4.9050   13.8190   24.3790 C   0  0  0  0  0  0  0  0  0  0  0  0
   -4.9240   13.3950   23.0580 C   0  0  0  0  0  0  0  0  0  0  0  0
   -4.2620   12.2630   22.3780 C   0  0  0  0  0  0  0  0  0  0  0  0
   -2.8640   12.1460   22.4430 C   0  0  0  0  0  0  0  0  0  0  0  0
   -2.1920   11.0950   21.8190 C   0  0  0  0  0  0  0  0  0  0  0  0
   -2.9070   10.1320   21.1110 C   0  0  0  0  0  0  0  0  0  0  0  0
   -4.3050   10.2040   21.0150 C   0  0  0  0  0  0  0  0  0  0  0  0
   -5.0180    9.1700   20.2540 C   0  0  0  0  0  0  0  0  0  0  0  0
   -4.4470    8.6080   19.1030 C   0  0  0  0  0  0  0  0  0  0  0  0
   -5.1160    7.6110   18.3910 C   0  0  0  0  0  0  0  0  0  0  0  0
   -6.3640    7.1630   18.8230 C   0  0  0  0  0  0  0  0  0  0  0  0
   -6.9450    7.7150   19.9640 C   0  0  0  0  0  0  0  0  0  0  0  0
   -6.2760    8.7120   20.6760 C   0  0  0  0  0  0  0  0  0  0  0  0
   -4.9710   11.2740   21.6560 C   0  0  0  0  0  0  0  0  0  0  0  0
   -6.3480   11.3650   21.5860 O   0  0  0  0  0  0  0  0  0  0  0  0
   -5.7440   14.2850   22.3960 N   0  0  0  0  0  0  0  0  0  0  0  0
   -6.2370   15.2460   23.2420 C   0  0  0  0  0  0  0  0  0  0  0  0
   -7.0930   16.3230   22.9940 C   0  0  0  0  0  0  0  0  0  0  0  0
   -7.4360   17.1590   24.0740 C   0  0  0  0  0  0  0  0  0  0  0  0
   -8.5210   18.4540   23.6780 Cl  0  0  0  0  0  0  0  0  0  0  0  0
  1  2  2  0
  2  3  1  0
  2  4  1  0
  4  5  2  0
  5  6  1  0
  6  7  1  0
  7  8  2  0
  8  9  1  0
  9 10  2  0
 10 11  1  0
 11 12  2  0
 12 13  1  0
 13 14  1  0
 14 15  2  0
 15 16  1  0
 16 17  2  0
 17 18  1  0
 18 19  2  0
 13 20  2  0
 20 21  1  0
  8 22  1  0
 22 23  1  0
 23 24  1  0
 24 25  2  0
 25 26  1  0
 25  4  1  0
 23  6  2  0
 20  9  1  0
 19 14  1  0
M  END
$$$$
