QZKOOEFIMWKZPK-UHFFFAOYSA-N
     RDKit          3D

 25 28  0  0  0  0  0  0  0  0999 V2000
   -0.1450    5.2740   27.3560 N   0  0  0  0  0  0  0  0  0  0  0  0
   -0.6570    6.1600   28.1500 C   0  0  0  0  0  0  0  0  0  0  0  0
   -0.6210    5.9070   29.4810 N   0  0  0  0  0  0  0  0  0  0  0  0
   -1.2620    7.4200   27.6430 C   0  0  0  0  0  0  0  0  0  0  0  0
   -2.3410    7.9900   28.3320 C   0  0  0  0  0  0  0  0  0  0  0  0
   -2.9260    9.1820   27.8840 C   0  0  0  0  0  0  0  0  0  0  0  0
   -2.4070    9.7970   26.7340 C   0  0  0  0  0  0  0  0  0  0  0  0
   -2.7950   10.9570   26.1110 N   0  0  0  0  0  0  0  0  0  0  0  0
   -1.9810   11.0950   25.0820 C   0  0  0  0  0  0  0  0  0  0  0  0
   -1.9810   12.1960   24.0740 C   0  0  0  0  0  0  0  0  0  0  0  0
   -3.1570   13.1020   24.2400 C   0  0  0  0  0  0  0  0  0  0  0  0
   -3.1170   14.4050   24.4560 N   0  0  0  0  0  0  0  0  0  0  0  0
   -4.4290   14.7990   24.5600 C   0  0  0  0  0  0  0  0  0  0  0  0
   -4.9690   16.0750   24.7730 C   0  0  0  0  0  0  0  0  0  0  0  0
   -6.3640   16.2150   24.8450 C   0  0  0  0  0  0  0  0  0  0  0  0
   -7.2090   15.1030   24.7160 C   0  0  0  0  0  0  0  0  0  0  0  0
   -8.6970   15.2510   24.7990 C   0  0  0  0  0  0  0  0  0  0  0  0
   -9.4520   14.3480   24.2610 N   0  0  0  0  0  0  0  0  0  0  0  0
   -9.2660   16.3080   25.4370 N   0  0  0  0  0  0  0  0  0  0  0  0
   -6.6760   13.8220   24.4930 C   0  0  0  0  0  0  0  0  0  0  0  0
   -5.2850   13.7140   24.4230 C   0  0  0  0  0  0  0  0  0  0  0  0
   -4.4520   12.6440   24.2230 N   0  0  0  0  0  0  0  0  0  0  0  0
   -1.0830   10.0530   25.0220 N   0  0  0  0  0  0  0  0  0  0  0  0
   -1.3360    9.2080   26.0700 C   0  0  0  0  0  0  0  0  0  0  0  0
   -0.7310    8.0190   26.4880 C   0  0  0  0  0  0  0  0  0  0  0  0
  1  2  2  0
  2  3  1  0
  2  4  1  0
  4  5  2  0
  5  6  1  0
  6  7  2  0
  7  8  1  0
  8  9  2  0
  9 10  1  0
 10 11  1  0
 11 12  2  0
 12 13  1  0
 13 14  2  0
 14 15  1  0
 15 16  2  0
 16 17  1  0
 17 18  2  0
 17 19  1  0
 16 20  1  0
 20 21  2  0
 21 22  1  0
  9 23  1  0
 23 24  1  0
 24 25  2  0
 25  4  1  0
 24  7  1  0
 22 11  1  0
 21 13  1  0
M  END
$$$$
