JMBFMRIGGCGNMP-UHFFFAOYSA-N
     RDKit          3D

 41 44  0  0  0  0  0  0  0  0999 V2000
   -7.3340    7.2440   18.7440 C   0  0  0  0  0  0  0  0  0  0  0  0
   -6.2930    6.3320   18.0950 C   0  0  0  0  0  0  0  0  0  0  0  0
   -6.5740    4.8690   18.4400 C   0  0  0  0  0  0  0  0  0  0  0  0
   -4.8570    6.7520   18.4520 C   0  0  0  0  0  0  0  0  0  0  0  0
   -4.7640    8.0920   18.9990 N   0  0  0  0  0  0  0  0  0  0  0  0
   -4.7420    9.2110   18.1930 C   0  0  0  0  0  0  0  0  0  0  0  0
   -4.7630    9.1710   16.9680 O   0  0  0  0  0  0  0  0  0  0  0  0
   -4.6450   10.5230   18.8890 C   0  0  0  0  0  0  0  0  0  0  0  0
   -5.8110   11.0840   19.4170 C   0  0  0  0  0  0  0  0  0  0  0  0
   -5.7670   12.3210   20.0690 C   0  0  0  0  0  0  0  0  0  0  0  0
   -4.5560   13.0190   20.2220 C   0  0  0  0  0  0  0  0  0  0  0  0
   -4.5790   14.3490   20.8520 C   0  0  0  0  0  0  0  0  0  0  0  0
   -4.6960   15.4910   20.0400 C   0  0  0  0  0  0  0  0  0  0  0  0
   -4.7740   16.7700   20.6000 C   0  0  0  0  0  0  0  0  0  0  0  0
   -4.7450   16.9500   21.9880 C   0  0  0  0  0  0  0  0  0  0  0  0
   -4.8490   18.2960   22.5630 C   0  0  0  0  0  0  0  0  0  0  0  0
   -6.2560   18.7050   23.4570 S   0  0  0  0  0  0  0  0  0  0  0  0
   -5.6810   20.2760   23.7810 C   0  0  0  0  0  0  0  0  0  0  0  0
   -4.4400   20.4920   23.2300 C   0  0  0  0  0  0  0  0  0  0  0  0
   -3.9390   19.3460   22.5200 C   0  0  0  0  0  0  0  0  0  0  0  0
   -2.6070   19.3220   21.8350 C   0  0  0  0  0  0  0  0  0  0  0  0
   -1.7010   18.4520   22.5050 O   0  0  0  0  0  0  0  0  0  0  0  0
   -4.6340   15.8240   22.8100 C   0  0  0  0  0  0  0  0  0  0  0  0
   -4.5390   14.5440   22.2460 C   0  0  0  0  0  0  0  0  0  0  0  0
   -4.3990   13.4100   23.1830 C   0  0  0  0  0  0  0  0  0  0  0  0
   -5.4200   12.8690   23.5850 O   0  0  0  0  0  0  0  0  0  0  0  0
   -3.0900   13.1290   23.5150 N   0  0  0  0  0  0  0  0  0  0  0  0
   -2.6220   12.1020   24.3570 C   0  0  0  0  0  0  0  0  0  0  0  0
   -3.2140   11.7630   25.5750 C   0  0  0  0  0  0  0  0  0  0  0  0
   -2.6910   10.7260   26.3560 C   0  0  0  0  0  0  0  0  0  0  0  0
   -1.5690   10.0190   25.9170 C   0  0  0  0  0  0  0  0  0  0  0  0
   -1.0110    8.9160   26.7400 C   0  0  0  0  0  0  0  0  0  0  0  0
   -1.7260    7.9000   27.1100 N   0  0  0  0  0  0  0  0  0  0  0  0
    0.2860    8.9410   27.1320 N   0  0  0  0  0  0  0  0  0  0  0  0
   -0.9730   10.3460   24.6970 C   0  0  0  0  0  0  0  0  0  0  0  0
   -1.4980   11.3850   23.9240 C   0  0  0  0  0  0  0  0  0  0  0  0
   -3.3820   12.4230   19.7170 C   0  0  0  0  0  0  0  0  0  0  0  0
   -2.0620   13.0520   19.9340 C   0  0  0  0  0  0  0  0  0  0  0  0
   -1.5580   13.3040   21.0120 O   0  0  0  0  0  0  0  0  0  0  0  0
   -1.4460   13.3170   18.7700 O   0  0  0  0  0  0  0  0  0  0  0  0
   -3.4250   11.1840   19.0540 C   0  0  0  0  0  0  0  0  0  0  0  0
  1  2  1  0
  2  3  1  0
  2  4  1  0
  4  5  1  0
  5  6  1  0
  6  7  2  0
  6  8  1  0
  8  9  2  0
  9 10  1  0
 10 11  2  0
 11 12  1  0
 12 13  2  0
 13 14  1  0
 14 15  2  0
 15 16  1  0
 16 17  1  0
 17 18  1  0
 18 19  2  0
 19 20  1  0
 20 21  1  0
 21 22  1  0
 15 23  1  0
 23 24  2  0
 24 25  1  0
 25 26  2  0
 25 27  1  0
 27 28  1  0
 28 29  2  0
 29 30  1  0
 30 31  2  0
 31 32  1  0
 32 33  2  0
 32 34  1  0
 31 35  1  0
 35 36  2  0
 11 37  1  0
 37 38  1  0
 38 39  2  0
 38 40  1  0
 37 41  2  0
 41  8  1  0
 24 12  1  0
 36 28  1  0
 20 16  2  0
M  END
$$$$
