SDHJEPJJARZDKU-UHFFFAOYSA-N
     RDKit          3D

 33 36  0  0  0  0  0  0  0  0999 V2000
  -17.8400  -41.4650   22.7190 C   0  0  0  0  0  0  0  0  0  0  0  0
  -17.7050  -42.5810   23.6570 N   0  0  0  0  0  0  0  0  0  0  0  0
  -18.9630  -42.7910   24.3690 C   0  0  0  0  0  0  0  0  0  0  0  0
  -16.5160  -42.4330   24.5230 C   0  0  2  0  0  0  0  0  0  0  0  0
  -15.3340  -43.2570   23.9720 C   0  0  0  0  0  0  0  0  0  0  0  0
  -14.0670  -43.0370   24.7980 C   0  0  0  0  0  0  0  0  0  0  0  0
  -14.2660  -43.3460   26.2900 C   0  0  2  0  0  0  0  0  0  0  0  0
  -14.4430  -44.8520   26.6000 C   0  0  0  0  0  0  0  0  0  0  0  0
  -13.1400  -45.6300   26.8600 C   0  0  0  0  0  0  0  0  0  0  0  0
  -12.6700  -45.6140   28.2550 N   0  0  0  0  0  0  0  0  0  0  0  0
  -13.7400  -45.8650   29.2410 C   0  0  0  0  0  0  0  0  0  0  0  0
  -13.9250  -44.7980   30.3330 C   0  0  0  0  0  0  0  0  0  0  0  0
  -13.1300  -45.1180   31.6030 C   0  0  0  0  0  0  0  0  0  0  0  0
  -12.8510  -43.9170   32.4520 C   0  0  0  0  0  0  0  0  0  0  0  0
  -13.7960  -43.0490   32.9660 C   0  0  0  0  0  0  0  0  0  0  0  0
  -13.1490  -42.0850   33.6890 N   0  0  0  0  0  0  0  0  0  0  0  0
  -11.7910  -42.3010   33.6640 C   0  0  0  0  0  0  0  0  0  0  0  0
  -10.7510  -41.5750   34.2580 C   0  0  0  0  0  0  0  0  0  0  0  0
   -9.4460  -42.0350   34.0600 C   0  0  0  0  0  0  0  0  0  0  0  0
   -9.1930  -43.1720   33.3000 C   0  0  0  0  0  0  0  0  0  0  0  0
  -10.2450  -43.8860   32.7140 C   0  0  0  0  0  0  0  0  0  0  0  0
  -11.5730  -43.4460   32.8960 C   0  0  0  0  0  0  0  0  0  0  0  0
  -11.5200  -46.5160   28.4540 C   0  0  0  0  0  0  0  0  0  0  0  0
  -10.1870  -45.7510   28.4230 C   0  0  0  0  0  0  0  0  0  0  0  0
  -10.0710  -44.5750   29.4260 C   0  0  0  0  0  0  0  0  0  0  0  0
  -10.9650  -43.3990   28.9980 C   0  0  0  0  0  0  0  0  0  0  0  0
  -10.6850  -42.8690   27.5930 C   0  0  0  0  0  0  0  0  0  0  0  0
   -9.5400  -41.8620   27.5570 C   0  0  0  0  0  0  0  0  0  0  0  0
   -8.1960  -42.3880   28.0470 C   0  0  0  0  0  0  0  0  0  0  0  0
   -8.1780  -42.7790   29.5240 C   0  0  0  0  0  0  0  0  0  0  0  0
   -8.6110  -44.2250   29.7660 C   0  0  0  0  0  0  0  0  0  0  0  0
  -15.4560  -42.5350   26.8320 C   0  0  0  0  0  0  0  0  0  0  0  0
  -16.7400  -42.7290   26.0200 C   0  0  0  0  0  0  0  0  0  0  0  0
  1  2  1  0
  2  3  1  0
  4  2  1  1
  4  5  1  0
  5  6  1  0
  6  7  1  0
  7  8  1  1
  8  9  1  0
  9 10  1  0
 10 11  1  0
 11 12  1  0
 12 13  1  0
 13 14  1  0
 14 15  2  0
 15 16  1  0
 16 17  1  0
 17 18  2  0
 18 19  1  0
 19 20  2  0
 20 21  1  0
 21 22  2  0
 10 23  1  0
 23 24  1  0
 24 25  1  0
 25 26  1  0
 26 27  1  0
 27 28  1  0
 28 29  1  0
 29 30  1  0
 30 31  1  0
  7 32  1  0
 32 33  1  0
 33  4  1  0
 22 14  1  0
 31 25  1  0
 22 17  1  0
M  END
$$$$
