BIIVYFLTOXDAOV-YVEFUNNKSA-N
     RDKit          3D

 28 31  0  0  0  0  0  0  0  0999 V2000
   23.7900   35.8010   14.9960 C   0  0  0  0  0  0  0  0  0  0  0  0
   22.4880   35.7140   15.6630 N   0  0  0  0  0  0  0  0  0  0  0  0
   21.5760   36.7430   15.1290 C   0  0  0  0  0  0  0  0  0  0  0  0
   20.2030   36.7110   15.8110 C   0  0  0  0  0  0  0  0  0  0  0  0
   19.6040   35.2970   15.7450 C   0  0  2  0  0  0  0  0  0  0  0  0
   18.1930   35.2300   16.3290 C   0  0  0  0  0  0  0  0  0  0  0  0
   17.8680   35.6330   17.6360 C   0  0  0  0  0  0  0  0  0  0  0  0
   18.7960   36.0500   18.5460 O   0  0  0  0  0  0  0  0  0  0  0  0
   16.5490   35.6450   18.1000 C   0  0  0  0  0  0  0  0  0  0  0  0
   15.5150   35.2360   17.2710 C   0  0  0  0  0  0  0  0  0  0  0  0
   14.2500   35.2750   17.7890 O   0  0  0  0  0  0  0  0  0  0  0  0
   15.7990   34.8160   15.9730 C   0  0  0  0  0  0  0  0  0  0  0  0
   14.7230   34.3960   15.0630 C   0  0  0  0  0  0  0  0  0  0  0  0
   13.5550   34.3440   15.4330 O   0  0  0  0  0  0  0  0  0  0  0  0
   15.1020   34.0480   13.6890 C   0  0  0  0  0  0  0  0  0  0  0  0
   16.3980   34.0690   13.3600 C   0  0  0  0  0  0  0  0  0  0  0  0
   16.8490   33.7280   11.9970 C   0  0  0  0  0  0  0  0  0  0  0  0
   16.1650   34.2780   10.8990 C   0  0  0  0  0  0  0  0  0  0  0  0
   16.5490   33.9780    9.5900 C   0  0  0  0  0  0  0  0  0  0  0  0
   17.6170   33.1150    9.3570 C   0  0  0  0  0  0  0  0  0  0  0  0
   18.3050   32.5550   10.4340 C   0  0  0  0  0  0  0  0  0  0  0  0
   17.9260   32.8560   11.7470 C   0  0  0  0  0  0  0  0  0  0  0  0
   18.8500   32.1350   13.0230 Cl  0  0  0  0  0  0  0  0  0  0  0  0
   17.4220   34.3930   14.2280 O   0  0  0  0  0  0  0  0  0  0  0  0
   17.1190   34.8090   15.5070 C   0  0  0  0  0  0  0  0  0  0  0  0
   20.6090   34.2660   16.3050 C   0  0  2  0  0  0  0  0  0  0  0  0
   20.9340   34.5590   17.6780 O   0  0  0  0  0  0  0  0  0  0  0  0
   21.9190   34.3580   15.4940 C   0  0  0  0  0  0  0  0  0  0  0  0
  1  2  1  0
  2  3  1  0
  3  4  1  0
  4  5  1  0
  5  6  1  1
  6  7  2  0
  7  8  1  0
  7  9  1  0
  9 10  2  0
 10 11  1  0
 10 12  1  0
 12 13  1  0
 13 14  2  0
 13 15  1  0
 15 16  2  0
 16 17  1  0
 17 18  2  0
 18 19  1  0
 19 20  2  0
 20 21  1  0
 21 22  2  0
 22 23  1  0
 16 24  1  0
 24 25  1  0
  5 26  1  0
 26 27  1  1
 26 28  1  0
 28  2  1  0
 25  6  1  0
 25 12  2  0
 22 17  1  0
M  END
$$$$
