NAHITMMJENLIPQ-LMXLVEHLSA-N
     RDKit          3D

 34 37  0  0  0  0  0  0  0  0999 V2000
   15.3070    1.4580   27.4040 C   0  0  0  0  0  0  0  0  0  0  0  0
   14.4830    2.5560   27.7820 O   0  0  0  0  0  0  0  0  0  0  0  0
   13.4980    2.3100   28.7110 C   0  0  0  0  0  0  0  0  0  0  0  0
   13.7200    1.8880   30.0240 C   0  0  0  0  0  0  0  0  0  0  0  0
   12.6720    1.6610   30.9090 C   0  0  0  0  0  0  0  0  0  0  0  0
   12.9700    1.2530   32.1450 N   0  0  0  0  0  0  0  0  0  0  0  0
   11.9410    1.0250   32.9660 C   0  0  0  0  0  0  0  0  0  0  0  0
   10.6500    1.1790   32.6720 N   0  0  0  0  0  0  0  0  0  0  0  0
   10.3540    1.6170   31.4350 C   0  0  0  0  0  0  0  0  0  0  0  0
    8.9980    1.8240   31.0950 N   0  0  0  0  0  0  0  0  0  0  0  0
    8.1880    2.9650   31.2260 C   0  0  0  0  0  0  0  0  0  0  0  0
    8.1720    3.6490   32.4540 C   0  0  0  0  0  0  0  0  0  0  0  0
    7.3990    4.7990   32.6270 C   0  0  0  0  0  0  0  0  0  0  0  0
    6.6350    5.2780   31.5710 C   0  0  0  0  0  0  0  0  0  0  0  0
    5.8970    6.3820   31.7570 F   0  0  0  0  0  0  0  0  0  0  0  0
    6.6430    4.6230   30.3430 C   0  0  0  0  0  0  0  0  0  0  0  0
    5.7190    5.2250   29.0210 Cl  0  0  0  0  0  0  0  0  0  0  0  0
    7.4190    3.4750   30.1710 C   0  0  0  0  0  0  0  0  0  0  0  0
   11.3570    1.8650   30.4750 C   0  0  0  0  0  0  0  0  0  0  0  0
   11.1260    2.2860   29.1410 C   0  0  0  0  0  0  0  0  0  0  0  0
   12.1830    2.5140   28.2620 C   0  0  0  0  0  0  0  0  0  0  0  0
   12.0130    2.9320   26.9260 N   0  0  0  0  0  0  0  0  0  0  0  0
   11.7200    4.1930   26.4560 C   0  0  0  0  0  0  0  0  0  0  0  0
   11.5790    5.2130   27.1230 O   0  0  0  0  0  0  0  0  0  0  0  0
   11.5830    4.2140   24.9680 C   0  0  0  0  0  0  0  0  0  0  0  0
   11.3180    3.0250   24.3860 F   0  0  0  0  0  0  0  0  0  0  0  0
   11.7110    5.3320   24.2440 C   0  0  0  0  0  0  0  0  0  0  0  0
   11.5870    5.3880   22.7550 C   0  0  0  0  0  0  0  0  0  0  0  0
   12.7570    6.0070   22.1210 N   0  0  0  0  0  0  0  0  0  0  0  0
   13.9990    5.2330   22.3430 C   0  0  0  0  0  0  0  0  0  0  0  0
   15.1900    5.8540   21.5960 C   0  0  0  0  0  0  0  0  0  0  0  0
   14.9340    5.9450   20.1890 O   0  0  0  0  0  0  0  0  0  0  0  0
   13.7630    6.7360   19.9570 C   0  0  0  0  0  0  0  0  0  0  0  0
   12.5400    6.1290   20.6610 C   0  0  0  0  0  0  0  0  0  0  0  0
  1  2  1  0
  2  3  1  0
  3  4  2  0
  4  5  1  0
  5  6  2  0
  6  7  1  0
  7  8  2  0
  8  9  1  0
  9 10  1  0
 10 11  1  0
 11 12  2  0
 12 13  1  0
 13 14  2  0
 14 15  1  0
 14 16  1  0
 16 17  1  0
 16 18  2  0
  9 19  2  0
 19 20  1  0
 20 21  2  0
 21 22  1  0
 22 23  1  0
 23 24  2  0
 23 25  1  0
 25 26  1  0
 25 27  2  0
 27 28  1  0
 28 29  1  0
 29 30  1  0
 30 31  1  0
 31 32  1  0
 32 33  1  0
 33 34  1  0
 21  3  1  0
 34 29  1  0
 19  5  1  0
 18 11  1  0
M  END
$$$$
