SEBMNMZRKUJGHU-UHFFFAOYSA-N
     RDKit          3D

 51 54  0  0  0  0  0  0  0  0999 V2000
    3.2470  -18.4680   18.7130 C   0  0  0  0  0  0  0  0  0  0  0  0
    3.5560  -17.9800   20.0680 N   0  0  0  0  0  0  0  0  0  0  0  0
    4.8540  -17.3920   20.2750 C   0  0  0  0  0  0  0  0  0  0  0  0
    5.2870  -16.3630   19.4260 C   0  0  0  0  0  0  0  0  0  0  0  0
    6.5400  -15.7720   19.6010 C   0  0  0  0  0  0  0  0  0  0  0  0
    7.3620  -16.2240   20.6230 C   0  0  0  0  0  0  0  0  0  0  0  0
    8.5920  -15.6780   20.8380 O   0  0  0  0  0  0  0  0  0  0  0  0
    6.9510  -17.2490   21.4680 C   0  0  0  0  0  0  0  0  0  0  0  0
    5.6810  -17.8380   21.3220 C   0  0  0  0  0  0  0  0  0  0  0  0
    5.2700  -18.9210   22.2890 C   0  0  0  0  0  0  0  0  0  0  0  0
    5.2830  -20.2310   21.6730 N   0  0  0  0  0  0  0  0  0  0  0  0
    6.4170  -21.0180   21.6130 C   0  0  0  0  0  0  0  0  0  0  0  0
    7.4500  -20.7150   22.4230 N   0  0  0  0  0  0  0  0  0  0  0  0
    8.5470  -21.4900   22.3740 C   0  0  0  0  0  0  0  0  0  0  0  0
    9.6850  -21.1250   23.2570 C   0  0  0  0  0  0  0  0  0  0  0  0
   10.1460  -22.0820   24.1940 C   0  0  0  0  0  0  0  0  0  0  0  0
   11.2030  -21.8120   25.0550 C   0  0  0  0  0  0  0  0  0  0  0  0
   11.6070  -22.7420   25.9340 F   0  0  0  0  0  0  0  0  0  0  0  0
   11.8440  -20.5870   25.0200 C   0  0  0  0  0  0  0  0  0  0  0  0
   12.8810  -20.3040   25.8610 O   0  0  0  0  0  0  0  0  0  0  0  0
   11.4380  -19.6190   24.1180 C   0  0  0  0  0  0  0  0  0  0  0  0
   10.3600  -19.8660   23.2330 C   0  0  0  0  0  0  0  0  0  0  0  0
    9.9990  -18.7370   22.2850 C   0  0  0  0  0  0  0  0  0  0  0  0
   10.3690  -19.0050   20.8340 C   0  0  0  0  0  0  0  0  0  0  0  0
   10.9280  -17.9070   20.2710 F   0  0  0  0  0  0  0  0  0  0  0  0
   11.2370  -20.0270   20.6700 F   0  0  0  0  0  0  0  0  0  0  0  0
    9.2580  -19.2970   20.1100 F   0  0  0  0  0  0  0  0  0  0  0  0
    8.6630  -22.5780   21.5990 N   0  0  0  0  0  0  0  0  0  0  0  0
    7.6190  -22.9070   20.8310 C   0  0  0  0  0  0  0  0  0  0  0  0
    7.8150  -24.0160   20.0310 N   0  0  0  0  0  0  0  0  0  0  0  0
    6.4640  -22.1450   20.8020 C   0  0  0  0  0  0  0  0  0  0  0  0
    5.3140  -22.5900   20.0070 C   0  0  0  0  0  0  0  0  0  0  0  0
    4.9040  -21.9930   18.9160 N   0  0  0  0  0  0  0  0  0  0  0  0
    4.4980  -23.7990   20.4350 C   0  0  0  0  0  0  0  0  0  0  0  0
    3.4330  -24.1160   19.7720 N   0  0  0  0  0  0  0  0  0  0  0  0
    4.9760  -24.4700   21.5290 N   0  0  0  0  0  0  0  0  0  0  0  0
    4.5270  -25.5830   22.1890 C   0  0  0  0  0  0  0  0  0  0  0  0
    3.4560  -26.2060   21.8010 N   0  0  0  0  0  0  0  0  0  0  0  0
    5.3060  -26.0890   23.4080 C   0  0  0  0  0  0  0  0  0  0  0  0
    6.2380  -24.9930   23.9490 C   0  0  0  0  0  0  0  0  0  0  0  0
    7.7130  -25.3470   23.8050 C   0  0  0  0  0  0  0  0  0  0  0  0
    8.0060  -26.6470   24.4100 N   0  0  0  0  0  0  0  0  0  0  0  0
    9.1320  -26.7630   25.1960 C   0  0  0  0  0  0  0  0  0  0  0  0
    9.3470  -27.9690   25.7680 N   0  0  0  0  0  0  0  0  0  0  0  0
    9.9320  -25.8570   25.4070 O   0  0  0  0  0  0  0  0  0  0  0  0
    7.0710  -27.7390   24.1450 C   0  0  0  0  0  0  0  0  0  0  0  0
    6.0410  -27.3960   23.0760 C   0  0  0  0  0  0  0  0  0  0  0  0
    2.2650  -17.4220   21.0170 S   0  0  0  0  0  0  0  0  0  0  0  0
    1.0220  -17.0210   19.8040 C   0  0  0  0  0  0  0  0  0  0  0  0
    2.6410  -16.1870   21.6710 O   0  0  0  0  0  0  0  0  0  0  0  0
    1.7680  -18.5460   21.7880 O   0  0  0  0  0  0  0  0  0  0  0  0
  1  2  1  0
  2  3  1  0
  3  4  2  0
  4  5  1  0
  5  6  2  0
  6  7  1  0
  6  8  1  0
  8  9  2  0
  9 10  1  0
 10 11  1  0
 11 12  1  0
 12 13  2  0
 13 14  1  0
 14 15  1  0
 15 16  2  0
 16 17  1  0
 17 18  1  0
 17 19  2  0
 19 20  1  0
 19 21  1  0
 21 22  2  0
 22 23  1  0
 23 24  1  0
 24 25  1  0
 24 26  1  0
 24 27  1  0
 14 28  2  0
 28 29  1  0
 29 30  1  0
 29 31  2  0
 31 32  1  0
 32 33  2  0
 32 34  1  0
 34 35  2  0
 34 36  1  0
 36 37  1  0
 37 38  2  0
 37 39  1  0
 39 40  1  0
 40 41  1  0
 41 42  1  0
 42 43  1  0
 43 44  1  0
 43 45  2  0
 42 46  1  0
 46 47  1  0
  2 48  1  0
 48 49  1  0
 48 50  2  0
 48 51  2  0
  9  3  1  0
 31 12  1  0
 47 39  1  0
 22 15  1  0
M  END
$$$$
