UOKGZPYGRJDACN-UHFFFAOYSA-N
     RDKit          3D

 21 24  0  0  0  0  0  0  0  0999 V2000
   28.5810   43.8120   46.1530 C   0  0  0  0  0  0  0  0  0  0  0  0
   29.4100   44.5940   45.2690 N   0  0  0  0  0  0  0  0  0  0  0  0
   29.4970   44.2450   43.9680 N   0  0  0  0  0  0  0  0  0  0  0  0
   30.3100   45.1770   43.4370 C   0  0  0  0  0  0  0  0  0  0  0  0
   30.6070   45.1610   42.0090 C   0  0  0  0  0  0  0  0  0  0  0  0
   30.8560   43.9490   41.3580 C   0  0  0  0  0  0  0  0  0  0  0  0
   31.1560   43.9310   39.9930 C   0  0  0  0  0  0  0  0  0  0  0  0
   31.2030   45.1230   39.2540 C   0  0  0  0  0  0  0  0  0  0  0  0
   31.5060   45.1220   37.8830 C   0  0  0  0  0  0  0  0  0  0  0  0
   31.5450   46.3150   37.1600 C   0  0  0  0  0  0  0  0  0  0  0  0
   31.2800   47.5240   37.7970 C   0  0  0  0  0  0  0  0  0  0  0  0
   30.9750   47.5420   39.1590 C   0  0  0  0  0  0  0  0  0  0  0  0
   30.9340   46.3510   39.9020 C   0  0  0  0  0  0  0  0  0  0  0  0
   30.6320   46.3540   41.2740 C   0  0  0  0  0  0  0  0  0  0  0  0
   30.7810   46.0880   44.4290 C   0  0  0  0  0  0  0  0  0  0  0  0
   31.6450   47.1870   44.5250 C   0  0  0  0  0  0  0  0  0  0  0  0
   32.3960   47.6920   43.4910 N   0  0  0  0  0  0  0  0  0  0  0  0
   31.7810   47.7970   45.7220 N   0  0  0  0  0  0  0  0  0  0  0  0
   31.0980   47.3120   46.7770 C   0  0  0  0  0  0  0  0  0  0  0  0
   30.2690   46.2580   46.8100 N   0  0  0  0  0  0  0  0  0  0  0  0
   30.1560   45.6870   45.5980 C   0  0  0  0  0  0  0  0  0  0  0  0
  1  2  1  0
  2  3  1  0
  3  4  2  0
  4  5  1  0
  5  6  2  0
  6  7  1  0
  7  8  2  0
  8  9  1  0
  9 10  2  0
 10 11  1  0
 11 12  2  0
 12 13  1  0
 13 14  2  0
  4 15  1  0
 15 16  2  0
 16 17  1  0
 16 18  1  0
 18 19  2  0
 19 20  1  0
 20 21  2  0
 21  2  1  0
 14  5  1  0
 21 15  1  0
 13  8  1  0
M  END
$$$$
