UHJPSFDAARAJFA-UHFFFAOYSA-N
     RDKit          3D

 25 27  0  0  0  0  0  0  0  0999 V2000
    5.2760  -21.2790   20.3860 C   0  0  0  0  0  0  0  0  0  0  0  0
    4.9620  -22.4630   21.2780 C   0  0  0  0  0  0  0  0  0  0  0  0
    4.1480  -23.7650   20.3750 S   0  0  0  0  0  0  0  0  0  0  0  0
    2.7240  -23.4660   20.3510 O   0  0  0  0  0  0  0  0  0  0  0  0
    4.8710  -24.0040   19.1390 O   0  0  0  0  0  0  0  0  0  0  0  0
    4.3450  -25.2200   21.3820 C   0  0  0  0  0  0  0  0  0  0  0  0
    3.3470  -26.1810   21.4040 C   0  0  0  0  0  0  0  0  0  0  0  0
    3.5480  -27.2840   22.2240 C   0  0  0  0  0  0  0  0  0  0  0  0
    4.7210  -27.3740   22.9740 C   0  0  0  0  0  0  0  0  0  0  0  0
    5.6670  -26.3510   22.8890 C   0  0  0  0  0  0  0  0  0  0  0  0
    6.9140  -26.3970   23.6450 C   0  0  0  0  0  0  0  0  0  0  0  0
    7.3320  -27.4940   24.3770 C   0  0  0  0  0  0  0  0  0  0  0  0
    8.5510  -27.2060   24.9340 N   0  0  0  0  0  0  0  0  0  0  0  0
    9.3130  -28.1150   25.7620 C   0  0  0  0  0  0  0  0  0  0  0  0
    8.9460  -25.9360   24.5830 C   0  0  0  0  0  0  0  0  0  0  0  0
   10.0890  -25.2110   24.8980 C   0  0  0  0  0  0  0  0  0  0  0  0
   10.2380  -23.9590   24.4090 N   0  0  0  0  0  0  0  0  0  0  0  0
    9.2800  -23.4260   23.6210 C   0  0  0  0  0  0  0  0  0  0  0  0
    9.5900  -22.1340   23.1950 N   0  0  0  0  0  0  0  0  0  0  0  0
    9.7820  -21.6760   21.9140 C   0  0  0  0  0  0  0  0  0  0  0  0
   10.0970  -20.2030   21.8810 C   0  0  0  0  0  0  0  0  0  0  0  0
    9.7070  -22.3290   20.8790 O   0  0  0  0  0  0  0  0  0  0  0  0
    8.1170  -24.0970   23.2770 C   0  0  0  0  0  0  0  0  0  0  0  0
    7.9430  -25.4040   23.7710 C   0  0  0  0  0  0  0  0  0  0  0  0
    5.4900  -25.2620   22.1070 N   0  0  0  0  0  0  0  0  0  0  0  0
  1  2  1  0
  2  3  1  0
  3  4  2  0
  3  5  2  0
  3  6  1  0
  6  7  2  0
  7  8  1  0
  8  9  2  0
  9 10  1  0
 10 11  1  0
 11 12  2  0
 12 13  1  0
 13 14  1  0
 13 15  1  0
 15 16  2  0
 16 17  1  0
 17 18  2  0
 18 19  1  0
 19 20  1  0
 20 21  1  0
 20 22  2  0
 18 23  1  0
 23 24  2  0
 10 25  2  0
 25  6  1  0
 24 11  1  0
 24 15  1  0
M  END
$$$$
