HYEZSXAYSUJOCJ-UHFFFAOYSA-N
     RDKit          3D

 32 34  0  0  0  0  0  0  0  0999 V2000
  -14.7430   -3.3650  -25.5190 C   0  0  0  0  0  0  0  0  0  0  0  0
  -13.7920   -3.8690  -26.5710 C   0  0  0  0  0  0  0  0  0  0  0  0
  -12.9470   -4.9430  -26.2460 C   0  0  0  0  0  0  0  0  0  0  0  0
  -12.0410   -5.4590  -27.1780 C   0  0  0  0  0  0  0  0  0  0  0  0
  -11.9590   -4.9200  -28.4580 C   0  0  0  0  0  0  0  0  0  0  0  0
  -11.0700   -5.3790  -29.4540 N   0  0  0  0  0  0  0  0  0  0  0  0
  -11.2850   -6.3960  -30.3670 C   0  0  0  0  0  0  0  0  0  0  0  0
  -12.3330   -7.0100  -30.5400 O   0  0  0  0  0  0  0  0  0  0  0  0
  -10.1240   -6.7040  -31.2610 C   0  0  0  0  0  0  0  0  0  0  0  0
  -10.1670   -6.3050  -32.6090 C   0  0  0  0  0  0  0  0  0  0  0  0
   -9.1110   -6.6100  -33.4660 C   0  0  0  0  0  0  0  0  0  0  0  0
   -8.0080   -7.3030  -32.9810 C   0  0  0  0  0  0  0  0  0  0  0  0
   -7.9440   -7.6800  -31.6360 C   0  0  0  0  0  0  0  0  0  0  0  0
   -8.9890   -7.3810  -30.7540 C   0  0  0  0  0  0  0  0  0  0  0  0
   -8.9360   -7.7130  -29.3780 N   0  0  0  0  0  0  0  0  0  0  0  0
   -8.7930   -8.9570  -28.7980 C   0  0  0  0  0  0  0  0  0  0  0  0
   -8.8020  -10.0340  -29.3830 O   0  0  0  0  0  0  0  0  0  0  0  0
   -8.6650   -8.9550  -27.3100 C   0  0  0  0  0  0  0  0  0  0  0  0
   -9.6800   -8.3600  -26.5560 C   0  0  0  0  0  0  0  0  0  0  0  0
   -9.6050   -8.3330  -25.1570 C   0  0  0  0  0  0  0  0  0  0  0  0
   -8.5210   -8.9070  -24.4730 C   0  0  0  0  0  0  0  0  0  0  0  0
   -8.4060   -8.8950  -22.9380 C   0  0  0  0  0  0  0  0  0  0  0  0
   -8.1070   -7.4590  -22.4510 C   0  0  0  0  0  0  0  0  0  0  0  0
   -7.2590   -9.8300  -22.4980 C   0  0  0  0  0  0  0  0  0  0  0  0
   -9.6870   -9.3660  -22.2120 C   0  0  0  0  0  0  0  0  0  0  0  0
   -7.5180   -9.5190  -25.2520 C   0  0  0  0  0  0  0  0  0  0  0  0
   -7.5880   -9.5490  -26.6500 C   0  0  0  0  0  0  0  0  0  0  0  0
  -12.7960   -3.8480  -28.7910 C   0  0  0  0  0  0  0  0  0  0  0  0
  -13.7140   -3.3160  -27.8630 C   0  0  0  0  0  0  0  0  0  0  0  0
  -14.5900   -2.1760  -28.2740 C   0  0  0  0  0  0  0  0  0  0  0  0
  -14.4890   -1.0090  -27.9460 O   0  0  0  0  0  0  0  0  0  0  0  0
  -15.5780   -2.5570  -29.1060 O   0  0  0  0  0  0  0  0  0  0  0  0
  1  2  1  0
  2  3  2  0
  3  4  1  0
  4  5  2  0
  5  6  1  0
  6  7  1  0
  7  8  2  0
  7  9  1  0
  9 10  2  0
 10 11  1  0
 11 12  2  0
 12 13  1  0
 13 14  2  0
 14 15  1  0
 15 16  1  0
 16 17  2  0
 16 18  1  0
 18 19  2  0
 19 20  1  0
 20 21  2  0
 21 22  1  0
 22 23  1  0
 22 24  1  0
 22 25  1  0
 21 26  1  0
 26 27  2  0
  5 28  1  0
 28 29  2  0
 29 30  1  0
 30 31  2  0
 30 32  1  0
 29  2  1  0
 14  9  1  0
 27 18  1  0
M  END
$$$$
