HYEZSXAYSUJOCJ-UHFFFAOYSA-N
     RDKit          3D

 32 34  0  0  0  0  0  0  0  0999 V2000
   -2.8480   -4.2010  -20.8450 C   0  0  0  0  0  0  0  0  0  0  0  0
   -4.1420   -4.8000  -20.3650 C   0  0  0  0  0  0  0  0  0  0  0  0
   -4.4070   -6.1450  -20.6680 C   0  0  0  0  0  0  0  0  0  0  0  0
   -5.5920   -6.7620  -20.2520 C   0  0  0  0  0  0  0  0  0  0  0  0
   -6.5380   -6.0520  -19.5200 C   0  0  0  0  0  0  0  0  0  0  0  0
   -7.7590   -6.5970  -19.0670 N   0  0  0  0  0  0  0  0  0  0  0  0
   -8.9930   -5.9710  -19.0210 C   0  0  0  0  0  0  0  0  0  0  0  0
   -9.2620   -4.8610  -19.4680 O   0  0  0  0  0  0  0  0  0  0  0  0
  -10.0970   -6.7850  -18.4230 C   0  0  0  0  0  0  0  0  0  0  0  0
  -10.6510   -6.3940  -17.1910 C   0  0  0  0  0  0  0  0  0  0  0  0
  -11.6580   -7.1550  -16.6000 C   0  0  0  0  0  0  0  0  0  0  0  0
  -12.1210   -8.3000  -17.2380 C   0  0  0  0  0  0  0  0  0  0  0  0
  -11.5940   -8.6820  -18.4760 C   0  0  0  0  0  0  0  0  0  0  0  0
  -10.5870   -7.9320  -19.0920 C   0  0  0  0  0  0  0  0  0  0  0  0
  -10.0620   -8.2690  -20.3650 N   0  0  0  0  0  0  0  0  0  0  0  0
  -10.6950   -8.8990  -21.4170 C   0  0  0  0  0  0  0  0  0  0  0  0
  -11.8170   -9.3940  -21.3960 O   0  0  0  0  0  0  0  0  0  0  0  0
   -9.8900   -9.0110  -22.6690 C   0  0  0  0  0  0  0  0  0  0  0  0
  -10.3720   -8.3970  -23.8280 C   0  0  0  0  0  0  0  0  0  0  0  0
   -9.6530   -8.4750  -25.0270 C   0  0  0  0  0  0  0  0  0  0  0  0
   -8.4290   -9.1590  -25.1010 C   0  0  0  0  0  0  0  0  0  0  0  0
   -7.6130   -9.2650  -26.4020 C   0  0  0  0  0  0  0  0  0  0  0  0
   -8.3800  -10.1290  -27.4280 C   0  0  0  0  0  0  0  0  0  0  0  0
   -6.2480   -9.9230  -26.1050 C   0  0  0  0  0  0  0  0  0  0  0  0
   -7.3280   -7.9030  -27.0740 C   0  0  0  0  0  0  0  0  0  0  0  0
   -7.9510   -9.7550  -23.9170 C   0  0  0  0  0  0  0  0  0  0  0  0
   -8.6660   -9.6810  -22.7150 C   0  0  0  0  0  0  0  0  0  0  0  0
   -6.2840   -4.7090  -19.2150 C   0  0  0  0  0  0  0  0  0  0  0  0
   -5.0960   -4.0730  -19.6270 C   0  0  0  0  0  0  0  0  0  0  0  0
   -4.8720   -2.6400  -19.2670 C   0  0  0  0  0  0  0  0  0  0  0  0
   -4.6050   -1.7210  -20.0180 O   0  0  0  0  0  0  0  0  0  0  0  0
   -5.0020   -2.4120  -17.9460 O   0  0  0  0  0  0  0  0  0  0  0  0
  1  2  1  0
  2  3  2  0
  3  4  1  0
  4  5  2  0
  5  6  1  0
  6  7  1  0
  7  8  2  0
  7  9  1  0
  9 10  2  0
 10 11  1  0
 11 12  2  0
 12 13  1  0
 13 14  2  0
 14 15  1  0
 15 16  1  0
 16 17  2  0
 16 18  1  0
 18 19  2  0
 19 20  1  0
 20 21  2  0
 21 22  1  0
 22 23  1  0
 22 24  1  0
 22 25  1  0
 21 26  1  0
 26 27  2  0
  5 28  1  0
 28 29  2  0
 29 30  1  0
 30 31  2  0
 30 32  1  0
 29  2  1  0
 14  9  1  0
 27 18  1  0
M  END
$$$$
