
 OpenBabel08282609533D

 36 40  0  0  1  0  0  0  0  0999 V2000
   19.0910   36.0560  123.0880 C   0  0  0  0  0  0  0  0  0  0  0  0
   17.8840   36.2660  124.0390 C   0  0  0  0  0  0  0  0  0  0  0  0
   17.4840   34.8670  124.5710 C   0  0  0  0  0  0  0  0  0  0  0  0
   16.7300   36.8690  123.2440 C   0  0  0  0  0  0  0  0  0  0  0  0
   15.6400   37.4390  124.1430 C   0  0  0  0  0  0  0  0  0  0  0  0
   16.1330   38.6140  125.0090 C   0  0  2  0  0  0  0  0  0  0  0  0
   16.3400   39.8670  124.1280 C   0  0  0  0  0  0  0  0  0  0  0  0
   17.0630   41.0240  124.8190 C   0  0  0  0  0  0  0  0  0  0  0  0
   18.4220   40.6200  125.4490 C   0  0  2  0  0  0  0  0  0  0  0  0
   19.3570   40.1580  124.2830 C   0  0  0  0  0  0  0  0  0  0  0  0
   18.1490   39.4440  126.4420 C   0  0  2  0  0  0  0  0  0  0  0  0
   19.4080   39.0870  127.2270 C   0  0  0  0  0  0  0  0  0  0  0  0
   19.5920   37.9970  127.7730 O   0  0  0  0  0  0  0  0  0  0  0  0
   20.4870   40.1070  127.3690 C   0  0  0  0  0  0  0  0  0  0  0  0
   20.4320   41.3710  126.8910 C   0  0  0  0  0  0  0  0  0  0  0  0
   21.6120   42.3730  127.0770 C   0  0  1  0  0  0  0  0  0  0  0  0
   21.4860   43.0010  128.4780 C   0  0  0  0  0  0  0  0  0  0  0  0
   22.9730   41.6790  127.0230 C   0  0  0  0  0  0  0  0  0  0  0  0
   24.1230   42.2280  126.5980 C   0  0  0  0  0  0  0  0  0  0  0  0
   25.3300   41.4730  126.5730 C   0  0  0  0  0  0  0  0  0  0  0  0
   26.2700   40.7960  126.5050 N   0  0  0  0  0  0  0  0  0  0  0  0
   24.1610   43.6550  126.1930 C   0  0  0  0  0  0  0  0  0  0  0  0
   25.2450   44.2410  126.1400 O   0  0  0  0  0  0  0  0  0  0  0  0
   22.8540   44.3940  125.8850 C   0  0  0  0  0  0  0  0  0  0  0  0
   22.7440   45.5690  126.8770 C   0  0  0  0  0  0  0  0  0  0  0  0
   23.0100   44.9980  124.4690 C   0  0  0  0  0  0  0  0  0  0  0  0
   21.6390   43.4090  125.9030 C   0  0  2  0  0  0  0  0  0  0  0  0
   20.2820   44.1010  125.7350 C   0  0  0  0  0  0  0  0  0  0  0  0
   19.2550   43.0740  125.2890 C   0  0  0  0  0  0  0  0  0  0  0  0
   19.1010   41.8530  126.2450 C   0  0  1  0  0  0  0  0  0  0  0  0
   18.2110   42.3500  127.4280 C   0  0  0  0  0  0  0  0  0  0  0  0
   17.3810   38.2120  125.8470 C   0  0  2  0  0  0  0  0  0  0  0  0
   18.3490   37.1660  125.2160 C   0  0  0  0  0  0  0  0  0  0  0  0
   14.9180   39.0230  125.9410 C   0  0  0  0  0  0  0  0  0  0  0  0
   14.8830   38.4590  127.0770 O   0  0  0  0  0  0  0  0  0  0  0  0
   14.1240   39.8870  125.4850 O   0  0  0  0  0  0  0  0  0  0  0  0
  1  2  1  0  0  0  0
  2  3  1  0  0  0  0
  2 33  1  0  0  0  0
  4  2  1  0  0  0  0
  4  5  1  0  0  0  0
  5  6  1  0  0  0  0
  6 32  1  0  0  0  0
  6 34  1  1  0  0  0
  7  8  1  0  0  0  0
  7  6  1  0  0  0  0
  8  9  1  0  0  0  0
  9 10  1  6  0  0  0
  9 30  1  0  0  0  0
  9 11  1  0  0  0  0
 11 12  1  6  0  0  0
 12 14  1  0  0  0  0
 12 13  2  0  0  0  0
 15 16  1  0  0  0  0
 15 14  2  0  0  0  0
 16 17  1  1  0  0  0
 18 16  1  0  0  0  0
 19 18  2  0  0  0  0
 20 19  1  0  0  0  0
 21 20  3  0  0  0  0
 22 19  1  0  0  0  0
 23 22  2  0  0  0  0
 24 27  1  0  0  0  0
 24 22  1  0  0  0  0
 24 25  1  0  0  0  0
 26 24  1  0  0  0  0
 27 28  1  1  0  0  0
 27 16  1  0  0  0  0
 29 28  1  0  0  0  0
 29 30  1  0  0  0  0
 30 15  1  0  0  0  0
 30 31  1  1  0  0  0
 32 33  1  6  0  0  0
 32 11  1  0  0  0  0
 34 35  1  0  0  0  0
 36 34  2  0  0  0  0
M  END
>  <minimizedAffinity>
16.4817104

>  <CNNscore>
0.374068111

>  <CNNaffinity>
5.97299576

$$$$

 OpenBabel08282609533D

 36 40  0  0  1  0  0  0  0  0999 V2000
   10.5410   42.7000  124.8440 C   0  0  0  0  0  0  0  0  0  0  0  0
   10.9780   43.5460  123.6200 C   0  0  0  0  0  0  0  0  0  0  0  0
   10.0460   44.7820  123.5730 C   0  0  0  0  0  0  0  0  0  0  0  0
   10.8000   42.7110  122.3560 C   0  0  0  0  0  0  0  0  0  0  0  0
   11.5260   43.3090  121.1570 C   0  0  0  0  0  0  0  0  0  0  0  0
   13.0550   43.3540  121.3460 C   0  0  2  0  0  0  0  0  0  0  0  0
   13.6400   41.9260  121.2430 C   0  0  0  0  0  0  0  0  0  0  0  0
   15.1070   41.8030  121.6600 C   0  0  0  0  0  0  0  0  0  0  0  0
   15.4000   42.3670  123.0740 C   0  0  2  0  0  0  0  0  0  0  0  0
   14.5840   41.5090  124.0970 C   0  0  0  0  0  0  0  0  0  0  0  0
   14.9250   43.8560  123.0950 C   0  0  2  0  0  0  0  0  0  0  0  0
   15.3200   44.5390  124.4010 C   0  0  0  0  0  0  0  0  0  0  0  0
   14.7670   45.5480  124.8450 O   0  0  0  0  0  0  0  0  0  0  0  0
   16.4510   43.9800  125.1980 C   0  0  0  0  0  0  0  0  0  0  0  0
   17.2080   42.9200  124.8370 C   0  0  0  0  0  0  0  0  0  0  0  0
   18.3690   42.3940  125.7350 C   0  0  1  0  0  0  0  0  0  0  0  0
   19.6150   43.2570  125.4570 C   0  0  0  0  0  0  0  0  0  0  0  0
   18.0550   42.5360  127.2250 C   0  0  0  0  0  0  0  0  0  0  0  0
   18.5090   41.7400  128.2070 C   0  0  0  0  0  0  0  0  0  0  0  0
   18.1310   41.9580  129.5620 C   0  0  0  0  0  0  0  0  0  0  0  0
   17.7370   42.1350  130.6390 N   0  0  0  0  0  0  0  0  0  0  0  0
   19.4600   40.6430  127.8960 C   0  0  0  0  0  0  0  0  0  0  0  0
   20.1320   40.1480  128.8040 O   0  0  0  0  0  0  0  0  0  0  0  0
   19.6240   40.1660  126.4490 C   0  0  0  0  0  0  0  0  0  0  0  0
   21.0960   40.3950  126.0520 C   0  0  0  0  0  0  0  0  0  0  0  0
   19.3790   38.6380  126.4550 C   0  0  0  0  0  0  0  0  0  0  0  0
   18.5810   40.8590  125.5110 C   0  0  2  0  0  0  0  0  0  0  0  0
   18.7730   40.5310  124.0270 C   0  0  0  0  0  0  0  0  0  0  0  0
   17.4830   40.8310  123.2830 C   0  0  0  0  0  0  0  0  0  0  0  0
   16.9750   42.2980  123.4300 C   0  0  1  0  0  0  0  0  0  0  0  0
   17.8390   43.1460  122.4430 C   0  0  0  0  0  0  0  0  0  0  0  0
   13.4400   44.1060  122.6530 C   0  0  2  0  0  0  0  0  0  0  0  0
   12.4460   44.0000  123.8490 C   0  0  0  0  0  0  0  0  0  0  0  0
   13.6430   44.0800  120.0660 C   0  0  0  0  0  0  0  0  0  0  0  0
   14.2080   43.3250  119.2180 O   0  0  0  0  0  0  0  0  0  0  0  0
   13.4670   45.3240  119.9950 O   0  0  0  0  0  0  0  0  0  0  0  0
  2 33  1  0  0  0  0
  2  1  1  0  0  0  0
  3  2  1  0  0  0  0
  4  2  1  0  0  0  0
  5  6  1  0  0  0  0
  5  4  1  0  0  0  0
  6 34  1  6  0  0  0
  6 32  1  0  0  0  0
  7  6  1  0  0  0  0
  7  8  1  0  0  0  0
  8  9  1  0  0  0  0
  9 11  1  0  0  0  0
  9 30  1  0  0  0  0
  9 10  1  1  0  0  0
 11 12  1  1  0  0  0
 12 13  2  0  0  0  0
 12 14  1  0  0  0  0
 15 14  2  0  0  0  0
 15 16  1  0  0  0  0
 16 17  1  6  0  0  0
 16 18  1  0  0  0  0
 18 19  2  0  0  0  0
 19 20  1  0  0  0  0
 20 21  3  0  0  0  0
 22 19  1  0  0  0  0
 22 23  2  0  0  0  0
 24 26  1  0  0  0  0
 24 22  1  0  0  0  0
 25 24  1  0  0  0  0
 27 28  1  6  0  0  0
 27 16  1  0  0  0  0
 27 24  1  0  0  0  0
 29 30  1  0  0  0  0
 29 28  1  0  0  0  0
 30 31  1  6  0  0  0
 30 15  1  0  0  0  0
 32 11  1  0  0  0  0
 32 33  1  1  0  0  0
 35 34  2  0  0  0  0
 36 34  1  0  0  0  0
M  END
>  <minimizedAffinity>
-1.67245185

>  <CNNscore>
0.343007982

>  <CNNaffinity>
6.24627304

$$$$

 OpenBabel08282609533D

 36 40  0  0  1  0  0  0  0  0999 V2000
   12.8470   37.6960  122.3110 C   0  0  0  0  0  0  0  0  0  0  0  0
   13.2220   38.8680  123.2550 C   0  0  0  0  0  0  0  0  0  0  0  0
   11.8960   39.4130  123.8400 C   0  0  0  0  0  0  0  0  0  0  0  0
   13.9160   39.9530  122.4400 C   0  0  0  0  0  0  0  0  0  0  0  0
   14.6350   40.9710  123.3180 C   0  0  0  0  0  0  0  0  0  0  0  0
   15.7810   40.3480  124.1390 C   0  0  2  0  0  0  0  0  0  0  0  0
   16.9700   40.0110  123.2100 C   0  0  0  0  0  0  0  0  0  0  0  0
   18.0670   39.1620  123.8570 C   0  0  0  0  0  0  0  0  0  0  0  0
   17.5410   37.8520  124.4990 C   0  0  2  0  0  0  0  0  0  0  0  0
   16.9370   36.9790  123.3500 C   0  0  0  0  0  0  0  0  0  0  0  0
   16.4400   38.2450  125.5360 C   0  0  2  0  0  0  0  0  0  0  0  0
   15.9770   37.0280  126.3320 C   0  0  0  0  0  0  0  0  0  0  0  0
   14.8950   36.9610  126.9190 O   0  0  0  0  0  0  0  0  0  0  0  0
   16.8790   35.8440  126.4340 C   0  0  0  0  0  0  0  0  0  0  0  0
   18.1220   35.7640  125.9080 C   0  0  0  0  0  0  0  0  0  0  0  0
   18.9970   34.4820  126.0540 C   0  0  1  0  0  0  0  0  0  0  0  0
   19.6870   34.5300  127.4320 C   0  0  0  0  0  0  0  0  0  0  0  0
   18.1570   33.2040  126.0250 C   0  0  0  0  0  0  0  0  0  0  0  0
   18.5610   32.0040  125.5780 C   0  0  0  0  0  0  0  0  0  0  0  0
   17.6800   30.8860  125.5790 C   0  0  0  0  0  0  0  0  0  0  0  0
   16.9020   30.0250  125.5360 N   0  0  0  0  0  0  0  0  0  0  0  0
   19.9600   31.8130  125.1200 C   0  0  0  0  0  0  0  0  0  0  0  0
   20.4220   30.6720  125.0430 O   0  0  0  0  0  0  0  0  0  0  0  0
   20.8250   33.0340  124.7850 C   0  0  0  0  0  0  0  0  0  0  0  0
   22.0410   33.0110  125.7330 C   0  0  0  0  0  0  0  0  0  0  0  0
   21.3550   32.8210  123.3470 C   0  0  0  0  0  0  0  0  0  0  0  0
   19.9790   34.3490  124.8430 C   0  0  2  0  0  0  0  0  0  0  0  0
   20.8070   35.6240  124.6510 C   0  0  0  0  0  0  0  0  0  0  0  0
   19.8820   36.7580  124.2450 C   0  0  0  0  0  0  0  0  0  0  0  0
   18.7210   37.0390  125.2470 C   0  0  1  0  0  0  0  0  0  0  0  0
   19.3560   37.8630  126.4120 C   0  0  0  0  0  0  0  0  0  0  0  0
   15.2770   39.1460  124.9890 C   0  0  2  0  0  0  0  0  0  0  0  0
   14.1090   38.3000  124.3970 C   0  0  0  0  0  0  0  0  0  0  0  0
   16.3540   41.5060  125.0570 C   0  0  0  0  0  0  0  0  0  0  0  0
   15.7170   42.6020  125.0180 O   0  0  0  0  0  0  0  0  0  0  0  0
   17.3600   41.2230  125.7580 O   0  0  0  0  0  0  0  0  0  0  0  0
  1  2  1  0  0  0  0
  2  3  1  0  0  0  0
  2 33  1  0  0  0  0
  4  2  1  0  0  0  0
  4  5  1  0  0  0  0
  5  6  1  0  0  0  0
  6 32  1  0  0  0  0
  6 34  1  1  0  0  0
  7  8  1  0  0  0  0
  7  6  1  0  0  0  0
  8  9  1  0  0  0  0
  9 10  1  6  0  0  0
  9 30  1  0  0  0  0
  9 11  1  0  0  0  0
 11 12  1  6  0  0  0
 12 14  1  0  0  0  0
 12 13  2  0  0  0  0
 15 16  1  0  0  0  0
 15 14  2  0  0  0  0
 16 17  1  1  0  0  0
 18 16  1  0  0  0  0
 19 20  1  0  0  0  0
 19 18  2  0  0  0  0
 21 20  3  0  0  0  0
 22 19  1  0  0  0  0
 23 22  2  0  0  0  0
 24 27  1  0  0  0  0
 24 22  1  0  0  0  0
 24 25  1  0  0  0  0
 26 24  1  0  0  0  0
 27 28  1  1  0  0  0
 27 16  1  0  0  0  0
 29 28  1  0  0  0  0
 29 30  1  0  0  0  0
 30 15  1  0  0  0  0
 30 31  1  1  0  0  0
 32 33  1  6  0  0  0
 32 11  1  0  0  0  0
 34 36  1  0  0  0  0
 35 34  2  0  0  0  0
M  END
>  <minimizedAffinity>
-4.66441107

>  <CNNscore>
0.317014068

>  <CNNaffinity>
6.63034248

$$$$

 OpenBabel08282609533D

 36 40  0  0  1  0  0  0  0  0999 V2000
   17.3220   29.3410  125.6710 C   0  0  0  0  0  0  0  0  0  0  0  0
   18.6460   29.2410  126.4730 C   0  0  0  0  0  0  0  0  0  0  0  0
   19.3900   27.9860  125.9560 C   0  0  0  0  0  0  0  0  0  0  0  0
   18.3130   29.0770  127.9520 C   0  0  0  0  0  0  0  0  0  0  0  0
   19.5190   29.3280  128.8510 C   0  0  0  0  0  0  0  0  0  0  0  0
   20.0420   30.7750  128.7590 C   0  0  2  0  0  0  0  0  0  0  0  0
   19.0600   31.7350  129.4680 C   0  0  0  0  0  0  0  0  0  0  0  0
   19.3350   33.2220  129.2320 C   0  0  0  0  0  0  0  0  0  0  0  0
   19.4220   33.6060  127.7320 C   0  0  2  0  0  0  0  0  0  0  0  0
   18.0230   33.3160  127.0940 C   0  0  0  0  0  0  0  0  0  0  0  0
   20.5260   32.7120  127.0800 C   0  0  2  0  0  0  0  0  0  0  0  0
   20.7910   33.1330  125.6370 C   0  0  0  0  0  0  0  0  0  0  0  0
   21.3020   32.3990  124.7890 O   0  0  0  0  0  0  0  0  0  0  0  0
   20.4340   34.5170  125.2100 C   0  0  0  0  0  0  0  0  0  0  0  0
   19.9230   35.4740  126.0160 C   0  0  0  0  0  0  0  0  0  0  0  0
   19.5690   36.8960  125.4840 C   0  0  1  0  0  0  0  0  0  0  0  0
   20.8620   37.7350  125.4690 C   0  0  0  0  0  0  0  0  0  0  0  0
   19.0470   36.8610  124.0470 C   0  0  0  0  0  0  0  0  0  0  0  0
   18.1740   37.7250  123.5030 C   0  0  0  0  0  0  0  0  0  0  0  0
   17.7420   37.5790  122.1550 C   0  0  0  0  0  0  0  0  0  0  0  0
   17.3680   37.3750  121.0750 N   0  0  0  0  0  0  0  0  0  0  0  0
   17.6840   38.8830  124.2910 C   0  0  0  0  0  0  0  0  0  0  0  0
   17.1760   39.8430  123.7060 O   0  0  0  0  0  0  0  0  0  0  0  0
   17.8480   38.8910  125.8150 C   0  0  0  0  0  0  0  0  0  0  0  0
   18.7190   40.1100  126.1790 C   0  0  0  0  0  0  0  0  0  0  0  0
   16.4410   39.1330  126.4120 C   0  0  0  0  0  0  0  0  0  0  0  0
   18.4030   37.5190  126.3230 C   0  0  2  0  0  0  0  0  0  0  0  0
   18.7190   37.4990  127.8220 C   0  0  0  0  0  0  0  0  0  0  0  0
   18.7770   36.0570  128.2960 C   0  0  0  0  0  0  0  0  0  0  0  0
   19.8050   35.1650  127.5370 C   0  0  1  0  0  0  0  0  0  0  0  0
   21.2000   35.5090  128.1490 C   0  0  0  0  0  0  0  0  0  0  0  0
   20.3620   31.1650  127.2870 C   0  0  2  0  0  0  0  0  0  0  0  0
   19.4860   30.5140  126.1750 C   0  0  0  0  0  0  0  0  0  0  0  0
   21.3370   30.8400  129.6700 C   0  0  0  0  0  0  0  0  0  0  0  0
   21.5750   29.8040  130.3610 O   0  0  0  0  0  0  0  0  0  0  0  0
   22.0210   31.8940  129.6010 O   0  0  0  0  0  0  0  0  0  0  0  0
  1  2  1  0  0  0  0
  2  4  1  0  0  0  0
  3  2  1  0  0  0  0
  4  5  1  0  0  0  0
  6  5  1  0  0  0  0
  6  7  1  0  0  0  0
  6 34  1  1  0  0  0
  8  7  1  0  0  0  0
  9 10  1  6  0  0  0
  9  8  1  0  0  0  0
 11 12  1  6  0  0  0
 11 32  1  0  0  0  0
 11  9  1  0  0  0  0
 13 12  2  0  0  0  0
 14 12  1  0  0  0  0
 14 15  2  0  0  0  0
 15 30  1  0  0  0  0
 16 17  1  1  0  0  0
 16 15  1  0  0  0  0
 16 27  1  0  0  0  0
 18 16  1  0  0  0  0
 19 18  2  0  0  0  0
 19 22  1  0  0  0  0
 20 19  1  0  0  0  0
 21 20  3  0  0  0  0
 22 24  1  0  0  0  0
 23 22  2  0  0  0  0
 24 25  1  0  0  0  0
 24 27  1  0  0  0  0
 24 26  1  0  0  0  0
 27 28  1  1  0  0  0
 28 29  1  0  0  0  0
 30  9  1  0  0  0  0
 30 31  1  1  0  0  0
 30 29  1  0  0  0  0
 32 33  1  6  0  0  0
 32  6  1  0  0  0  0
 33  2  1  0  0  0  0
 34 35  1  0  0  0  0
 36 34  2  0  0  0  0
M  END
>  <minimizedAffinity>
37.3021469

>  <CNNscore>
0.315040052

>  <CNNaffinity>
6.47851181

$$$$

 OpenBabel08282609533D

 36 40  0  0  1  0  0  0  0  0999 V2000
   16.4970   40.4160  121.6810 C   0  0  0  0  0  0  0  0  0  0  0  0
   16.2460   40.7830  123.1670 C   0  0  0  0  0  0  0  0  0  0  0  0
   14.8180   41.3780  123.2460 C   0  0  0  0  0  0  0  0  0  0  0  0
   17.2700   41.8300  123.5940 C   0  0  0  0  0  0  0  0  0  0  0  0
   17.3390   41.9920  125.1080 C   0  0  0  0  0  0  0  0  0  0  0  0
   17.8120   40.7120  125.8250 C   0  0  2  0  0  0  0  0  0  0  0  0
   19.3230   40.4980  125.5770 C   0  0  0  0  0  0  0  0  0  0  0  0
   19.8590   39.1360  126.0230 C   0  0  0  0  0  0  0  0  0  0  0  0
   19.0750   37.9360  125.4300 C   0  0  2  0  0  0  0  0  0  0  0  0
   19.2530   37.9850  123.8770 C   0  0  0  0  0  0  0  0  0  0  0  0
   17.5730   38.1140  125.8230 C   0  0  2  0  0  0  0  0  0  0  0  0
   16.7520   36.8940  125.4160 C   0  0  0  0  0  0  0  0  0  0  0  0
   15.5300   36.9100  125.2520 O   0  0  0  0  0  0  0  0  0  0  0  0
   17.4450   35.5880  125.2150 C   0  0  0  0  0  0  0  0  0  0  0  0
   18.7650   35.3700  125.4090 C   0  0  0  0  0  0  0  0  0  0  0  0
   19.4120   33.9720  125.1670 C   0  0  1  0  0  0  0  0  0  0  0  0
   19.1830   33.1160  126.4280 C   0  0  0  0  0  0  0  0  0  0  0  0
   18.7580   33.2270  124.0020 C   0  0  0  0  0  0  0  0  0  0  0  0
   19.3610   32.3390  123.1950 C   0  0  0  0  0  0  0  0  0  0  0  0
   18.6530   31.7220  122.1250 C   0  0  0  0  0  0  0  0  0  0  0  0
   18.0520   31.3020  121.2250 N   0  0  0  0  0  0  0  0  0  0  0  0
   20.7710   31.9460  123.4420 C   0  0  0  0  0  0  0  0  0  0  0  0
   21.2070   30.9070  122.9410 O   0  0  0  0  0  0  0  0  0  0  0  0
   21.6550   32.8120  124.3450 C   0  0  0  0  0  0  0  0  0  0  0  0
   22.1040   31.9340  125.5300 C   0  0  0  0  0  0  0  0  0  0  0  0
   22.9190   33.1640  123.5240 C   0  0  0  0  0  0  0  0  0  0  0  0
   20.9140   34.1290  124.7550 C   0  0  2  0  0  0  0  0  0  0  0  0
   21.6860   34.9820  125.7660 C   0  0  0  0  0  0  0  0  0  0  0  0
   21.1490   36.4020  125.7270 C   0  0  0  0  0  0  0  0  0  0  0  0
   19.6200   36.5260  126.0030 C   0  0  1  0  0  0  0  0  0  0  0  0
   19.4590   36.4190  127.5530 C   0  0  0  0  0  0  0  0  0  0  0  0
   16.9250   39.4910  125.4420 C   0  0  2  0  0  0  0  0  0  0  0  0
   16.3220   39.4780  124.0050 C   0  0  0  0  0  0  0  0  0  0  0  0
   17.7380   41.0160  127.3780 C   0  0  0  0  0  0  0  0  0  0  0  0
   16.6970   40.5990  127.9700 O   0  0  0  0  0  0  0  0  0  0  0  0
   18.7260   41.6110  127.8830 O   0  0  0  0  0  0  0  0  0  0  0  0
  1  2  1  0  0  0  0
  2  3  1  0  0  0  0
  2  4  1  0  0  0  0
  2 33  1  0  0  0  0
  4  5  1  0  0  0  0
  5  6  1  0  0  0  0
  6 34  1  1  0  0  0
  7  6  1  0  0  0  0
  7  8  1  0  0  0  0
  9 10  1  6  0  0  0
  9 11  1  0  0  0  0
  9 30  1  0  0  0  0
  9  8  1  0  0  0  0
 11 12  1  6  0  0  0
 13 12  2  0  0  0  0
 14 15  2  0  0  0  0
 14 12  1  0  0  0  0
 15 30  1  0  0  0  0
 16 15  1  0  0  0  0
 16 17  1  1  0  0  0
 18 16  1  0  0  0  0
 19 22  1  0  0  0  0
 19 18  2  0  0  0  0
 20 19  1  0  0  0  0
 21 20  3  0  0  0  0
 22 24  1  0  0  0  0
 23 22  2  0  0  0  0
 24 27  1  0  0  0  0
 24 25  1  0  0  0  0
 26 24  1  0  0  0  0
 27 16  1  0  0  0  0
 27 28  1  1  0  0  0
 29 28  1  0  0  0  0
 29 30  1  0  0  0  0
 30 31  1  1  0  0  0
 32 33  1  6  0  0  0
 32 11  1  0  0  0  0
 32  6  1  0  0  0  0
 34 36  2  0  0  0  0
 34 35  1  0  0  0  0
M  END
>  <minimizedAffinity>
6.35864258

>  <CNNscore>
0.311702043

>  <CNNaffinity>
6.54937792

$$$$

 OpenBabel08282609533D

 36 40  0  0  1  0  0  0  0  0999 V2000
   18.6440   36.7510  124.4940 C   0  0  0  0  0  0  0  0  0  0  0  0
   17.7280   36.6780  125.7450 C   0  0  0  0  0  0  0  0  0  0  0  0
   18.6560   36.4850  126.9690 C   0  0  0  0  0  0  0  0  0  0  0  0
   16.7970   35.4780  125.6020 C   0  0  0  0  0  0  0  0  0  0  0  0
   15.6340   35.5240  126.5860 C   0  0  0  0  0  0  0  0  0  0  0  0
   14.7040   36.7310  126.3550 C   0  0  2  0  0  0  0  0  0  0  0  0
   13.8710   36.5140  125.0710 C   0  0  0  0  0  0  0  0  0  0  0  0
   13.0940   37.7440  124.5960 C   0  0  0  0  0  0  0  0  0  0  0  0
   13.9790   39.0060  124.4170 C   0  0  2  0  0  0  0  0  0  0  0  0
   15.0210   38.6890  123.2940 C   0  0  0  0  0  0  0  0  0  0  0  0
   14.6950   39.2760  125.7800 C   0  0  2  0  0  0  0  0  0  0  0  0
   15.4650   40.5920  125.7420 C   0  0  0  0  0  0  0  0  0  0  0  0
   16.4000   40.8650  126.4980 O   0  0  0  0  0  0  0  0  0  0  0  0
   15.0700   41.6350  124.7510 C   0  0  0  0  0  0  0  0  0  0  0  0
   14.0340   41.5350  123.8870 C   0  0  0  0  0  0  0  0  0  0  0  0
   13.6940   42.6710  122.8750 C   0  0  1  0  0  0  0  0  0  0  0  0
   12.8520   43.7300  123.6130 C   0  0  0  0  0  0  0  0  0  0  0  0
   14.9480   43.3820  122.3630 C   0  0  0  0  0  0  0  0  0  0  0  0
   15.0910   43.9610  121.1590 C   0  0  0  0  0  0  0  0  0  0  0  0
   16.3190   44.5760  120.7830 C   0  0  0  0  0  0  0  0  0  0  0  0
   17.3600   45.0010  120.4980 N   0  0  0  0  0  0  0  0  0  0  0  0
   13.9450   44.0120  120.2170 C   0  0  0  0  0  0  0  0  0  0  0  0
   13.9610   44.8220  119.2870 O   0  0  0  0  0  0  0  0  0  0  0  0
   12.7410   43.0890  120.4320 C   0  0  0  0  0  0  0  0  0  0  0  0
   11.5040   43.9850  120.6370 C   0  0  0  0  0  0  0  0  0  0  0  0
   12.5360   42.3120  119.1100 C   0  0  0  0  0  0  0  0  0  0  0  0
   13.0140   42.0790  121.5960 C   0  0  2  0  0  0  0  0  0  0  0  0
   11.8030   41.2120  121.9570 C   0  0  0  0  0  0  0  0  0  0  0  0
   12.2800   39.9860  122.7150 C   0  0  0  0  0  0  0  0  0  0  0  0
   13.0990   40.2970  124.0040 C   0  0  1  0  0  0  0  0  0  0  0  0
   12.0450   40.6640  125.0970 C   0  0  0  0  0  0  0  0  0  0  0  0
   15.4990   38.0690  126.3800 C   0  0  2  0  0  0  0  0  0  0  0  0
   16.9690   38.0280  125.8640 C   0  0  0  0  0  0  0  0  0  0  0  0
   13.6160   36.6830  127.5060 C   0  0  0  0  0  0  0  0  0  0  0  0
   14.0680   36.7050  128.6910 O   0  0  0  0  0  0  0  0  0  0  0  0
   12.4110   36.6600  127.1420 O   0  0  0  0  0  0  0  0  0  0  0  0
  1  2  1  0  0  0  0
  2 33  1  0  0  0  0
  2  3  1  0  0  0  0
  4  2  1  0  0  0  0
  4  5  1  0  0  0  0
  6 32  1  0  0  0  0
  6  5  1  0  0  0  0
  6 34  1  1  0  0  0
  7  6  1  0  0  0  0
  8  7  1  0  0  0  0
  9 10  1  6  0  0  0
  9  8  1  0  0  0  0
  9 11  1  0  0  0  0
 11 12  1  6  0  0  0
 11 32  1  0  0  0  0
 12 13  2  0  0  0  0
 14 12  1  0  0  0  0
 15 30  1  0  0  0  0
 15 14  2  0  0  0  0
 16 17  1  1  0  0  0
 16 15  1  0  0  0  0
 18 16  1  0  0  0  0
 19 18  2  0  0  0  0
 20 19  1  0  0  0  0
 21 20  3  0  0  0  0
 22 24  1  0  0  0  0
 22 19  1  0  0  0  0
 23 22  2  0  0  0  0
 24 25  1  0  0  0  0
 24 27  1  0  0  0  0
 26 24  1  0  0  0  0
 27 28  1  1  0  0  0
 27 16  1  0  0  0  0
 28 29  1  0  0  0  0
 29 30  1  0  0  0  0
 30  9  1  0  0  0  0
 30 31  1  1  0  0  0
 32 33  1  6  0  0  0
 34 35  1  0  0  0  0
 36 34  2  0  0  0  0
M  END
>  <minimizedAffinity>
-1.90447664

>  <CNNscore>
0.30965969

>  <CNNaffinity>
6.60204458

$$$$

 OpenBabel08282609533D

 36 40  0  0  1  0  0  0  0  0999 V2000
   18.2340   34.8860  125.9020 C   0  0  0  0  0  0  0  0  0  0  0  0
   16.8880   35.2030  125.2000 C   0  0  0  0  0  0  0  0  0  0  0  0
   15.8370   34.2290  125.7880 C   0  0  0  0  0  0  0  0  0  0  0  0
   17.0450   34.9580  123.7030 C   0  0  0  0  0  0  0  0  0  0  0  0
   15.9110   35.5730  122.8910 C   0  0  0  0  0  0  0  0  0  0  0  0
   15.8620   37.1100  123.0020 C   0  0  2  0  0  0  0  0  0  0  0  0
   17.0350   37.7310  122.2100 C   0  0  0  0  0  0  0  0  0  0  0  0
   17.2450   39.2290  122.4450 C   0  0  0  0  0  0  0  0  0  0  0  0
   17.3890   39.6080  123.9420 C   0  0  2  0  0  0  0  0  0  0  0  0
   18.6760   38.8990  124.4790 C   0  0  0  0  0  0  0  0  0  0  0  0
   16.1170   39.0870  124.6850 C   0  0  2  0  0  0  0  0  0  0  0  0
   16.1000   39.5550  126.1370 C   0  0  0  0  0  0  0  0  0  0  0  0
   15.4530   39.0050  127.0300 O   0  0  0  0  0  0  0  0  0  0  0  0
   16.8920   40.7610  126.5180 C   0  0  0  0  0  0  0  0  0  0  0  0
   17.6100   41.5230  125.6630 C   0  0  0  0  0  0  0  0  0  0  0  0
   18.4200   42.7650  126.1490 C   0  0  1  0  0  0  0  0  0  0  0  0
   17.4490   43.9580  126.2470 C   0  0  0  0  0  0  0  0  0  0  0  0
   19.0100   42.5580  127.5440 C   0  0  0  0  0  0  0  0  0  0  0  0
   20.1420   43.1100  128.0110 C   0  0  0  0  0  0  0  0  0  0  0  0
   20.6070   42.8270  129.3270 C   0  0  0  0  0  0  0  0  0  0  0  0
   20.9800   42.5090  130.3790 N   0  0  0  0  0  0  0  0  0  0  0  0
   20.9030   44.0710  127.1740 C   0  0  0  0  0  0  0  0  0  0  0  0
   21.7210   44.8240  127.7070 O   0  0  0  0  0  0  0  0  0  0  0  0
   20.6370   44.1420  125.6660 C   0  0  0  0  0  0  0  0  0  0  0  0
   20.1550   45.5720  125.3500 C   0  0  0  0  0  0  0  0  0  0  0  0
   22.0030   43.9490  124.9650 C   0  0  0  0  0  0  0  0  0  0  0  0
   19.6540   43.0100  125.2180 C   0  0  2  0  0  0  0  0  0  0  0  0
   19.2370   43.1010  123.7470 C   0  0  0  0  0  0  0  0  0  0  0  0
   18.7080   41.7500  123.2980 C   0  0  0  0  0  0  0  0  0  0  0  0
   17.5160   41.2070  124.1430 C   0  0  1  0  0  0  0  0  0  0  0  0
   16.2510   41.9660  123.6290 C   0  0  0  0  0  0  0  0  0  0  0  0
   15.7850   37.5660  124.4880 C   0  0  2  0  0  0  0  0  0  0  0  0
   16.5010   36.6680  125.5420 C   0  0  0  0  0  0  0  0  0  0  0  0
   14.5860   37.5760  122.1860 C   0  0  0  0  0  0  0  0  0  0  0  0
   14.7140   37.5880  120.9250 O   0  0  0  0  0  0  0  0  0  0  0  0
   13.5600   37.8580  122.8590 O   0  0  0  0  0  0  0  0  0  0  0  0
  2 33  1  0  0  0  0
  2  3  1  0  0  0  0
  2  1  1  0  0  0  0
  4  2  1  0  0  0  0
  5  6  1  0  0  0  0
  5  4  1  0  0  0  0
  6 34  1  6  0  0  0
  6 32  1  0  0  0  0
  7  8  1  0  0  0  0
  7  6  1  0  0  0  0
  8  9  1  0  0  0  0
  9 30  1  0  0  0  0
  9 10  1  1  0  0  0
  9 11  1  0  0  0  0
 11 12  1  1  0  0  0
 12 14  1  0  0  0  0
 12 13  2  0  0  0  0
 15 16  1  0  0  0  0
 15 14  2  0  0  0  0
 16 17  1  6  0  0  0
 16 18  1  0  0  0  0
 18 19  2  0  0  0  0
 19 20  1  0  0  0  0
 20 21  3  0  0  0  0
 22 23  2  0  0  0  0
 22 19  1  0  0  0  0
 24 22  1  0  0  0  0
 25 24  1  0  0  0  0
 26 24  1  0  0  0  0
 27 28  1  6  0  0  0
 27 24  1  0  0  0  0
 27 16  1  0  0  0  0
 29 28  1  0  0  0  0
 29 30  1  0  0  0  0
 30 31  1  6  0  0  0
 30 15  1  0  0  0  0
 32 11  1  0  0  0  0
 32 33  1  1  0  0  0
 34 36  1  0  0  0  0
 35 34  2  0  0  0  0
M  END
>  <minimizedAffinity>
33.754364

>  <CNNscore>
0.301508904

>  <CNNaffinity>
5.95443487

$$$$

 OpenBabel08282609533D

 36 40  0  0  1  0  0  0  0  0999 V2000
   15.4220   34.8120  125.5480 C   0  0  0  0  0  0  0  0  0  0  0  0
   14.1510   35.6850  125.3840 C   0  0  0  0  0  0  0  0  0  0  0  0
   13.0150   34.9730  126.1580 C   0  0  0  0  0  0  0  0  0  0  0  0
   13.8000   35.7670  123.9020 C   0  0  0  0  0  0  0  0  0  0  0  0
   12.7970   36.8750  123.6020 C   0  0  0  0  0  0  0  0  0  0  0  0
   13.3470   38.2800  123.9190 C   0  0  2  0  0  0  0  0  0  0  0  0
   14.4080   38.6800  122.8680 C   0  0  0  0  0  0  0  0  0  0  0  0
   15.2070   39.9390  123.2110 C   0  0  0  0  0  0  0  0  0  0  0  0
   15.8760   39.8880  124.6090 C   0  0  2  0  0  0  0  0  0  0  0  0
   16.9070   38.7110  124.5900 C   0  0  0  0  0  0  0  0  0  0  0  0
   14.7500   39.6230  125.6610 C   0  0  2  0  0  0  0  0  0  0  0  0
   15.2970   39.7160  127.0830 C   0  0  0  0  0  0  0  0  0  0  0  0
   14.7580   39.1950  128.0620 O   0  0  0  0  0  0  0  0  0  0  0  0
   16.5470   40.4910  127.3300 C   0  0  0  0  0  0  0  0  0  0  0  0
   17.2370   41.1760  126.3900 C   0  0  0  0  0  0  0  0  0  0  0  0
   18.5430   41.9550  126.7330 C   0  0  1  0  0  0  0  0  0  0  0  0
   18.1420   43.3300  127.3030 C   0  0  0  0  0  0  0  0  0  0  0  0
   19.3680   41.2520  127.8120 C   0  0  0  0  0  0  0  0  0  0  0  0
   20.7040   41.3010  127.9410 C   0  0  0  0  0  0  0  0  0  0  0  0
   21.3670   40.5850  128.9770 C   0  0  0  0  0  0  0  0  0  0  0  0
   21.8640   39.9270  129.7940 N   0  0  0  0  0  0  0  0  0  0  0  0
   21.5090   42.1510  127.0280 C   0  0  0  0  0  0  0  0  0  0  0  0
   22.6570   42.4670  127.3500 O   0  0  0  0  0  0  0  0  0  0  0  0
   20.8950   42.6560  125.7190 C   0  0  0  0  0  0  0  0  0  0  0  0
   20.9050   44.1970  125.7690 C   0  0  0  0  0  0  0  0  0  0  0  0
   21.8530   42.2240  124.5830 C   0  0  0  0  0  0  0  0  0  0  0  0
   19.4840   42.0220  125.4830 C   0  0  2  0  0  0  0  0  0  0  0  0
   18.7510   42.5840  124.2600 C   0  0  0  0  0  0  0  0  0  0  0  0
   17.6640   41.6090  123.8440 C   0  0  0  0  0  0  0  0  0  0  0  0
   16.6290   41.2750  124.9610 C   0  0  1  0  0  0  0  0  0  0  0  0
   15.6430   42.4850  125.0020 C   0  0  0  0  0  0  0  0  0  0  0  0
   13.8440   38.3710  125.3910 C   0  0  2  0  0  0  0  0  0  0  0  0
   14.4350   37.0730  126.0210 C   0  0  0  0  0  0  0  0  0  0  0  0
   12.1630   39.2960  123.6450 C   0  0  0  0  0  0  0  0  0  0  0  0
   11.8050   39.4080  122.4330 O   0  0  0  0  0  0  0  0  0  0  0  0
   11.6680   39.8700  124.6500 O   0  0  0  0  0  0  0  0  0  0  0  0
  2  1  1  0  0  0  0
  2 33  1  0  0  0  0
  2  3  1  0  0  0  0
  4  2  1  0  0  0  0
  5  4  1  0  0  0  0
  5  6  1  0  0  0  0
  6 34  1  6  0  0  0
  6 32  1  0  0  0  0
  7  8  1  0  0  0  0
  7  6  1  0  0  0  0
  8  9  1  0  0  0  0
  9 10  1  1  0  0  0
  9 30  1  0  0  0  0
  9 11  1  0  0  0  0
 11 12  1  1  0  0  0
 12 14  1  0  0  0  0
 12 13  2  0  0  0  0
 15 16  1  0  0  0  0
 15 14  2  0  0  0  0
 16 17  1  1  0  0  0
 16 18  1  0  0  0  0
 18 19  2  0  0  0  0
 19 20  1  0  0  0  0
 20 21  3  0  0  0  0
 22 23  2  0  0  0  0
 22 19  1  0  0  0  0
 24 25  1  0  0  0  0
 24 22  1  0  0  0  0
 26 24  1  0  0  0  0
 27 28  1  6  0  0  0
 27 24  1  0  0  0  0
 27 16  1  0  0  0  0
 29 28  1  0  0  0  0
 29 30  1  0  0  0  0
 30 31  1  1  0  0  0
 30 15  1  0  0  0  0
 32 11  1  0  0  0  0
 32 33  1  6  0  0  0
 34 36  1  0  0  0  0
 35 34  2  0  0  0  0
M  END
>  <minimizedAffinity>
15.5425329

>  <CNNscore>
0.28861019

>  <CNNaffinity>
6.05061531

$$$$

 OpenBabel08282609533D

 36 40  0  0  1  0  0  0  0  0999 V2000
    9.7450   43.2950  124.8410 C   0  0  0  0  0  0  0  0  0  0  0  0
   10.1200   43.9170  123.4710 C   0  0  0  0  0  0  0  0  0  0  0  0
    9.3290   45.2420  123.3490 C   0  0  0  0  0  0  0  0  0  0  0  0
    9.7010   42.9560  122.3630 C   0  0  0  0  0  0  0  0  0  0  0  0
   10.3380   43.3010  121.0220 C   0  0  0  0  0  0  0  0  0  0  0  0
   11.8740   43.1790  121.0420 C   0  0  2  0  0  0  0  0  0  0  0  0
   12.2840   41.6890  121.0800 C   0  0  0  0  0  0  0  0  0  0  0  0
   13.7680   41.4390  121.3540 C   0  0  0  0  0  0  0  0  0  0  0  0
   14.2900   42.1400  122.6360 C   0  0  2  0  0  0  0  0  0  0  0  0
   13.5150   41.5270  123.8490 C   0  0  0  0  0  0  0  0  0  0  0  0
   13.9850   43.6660  122.4970 C   0  0  2  0  0  0  0  0  0  0  0  0
   14.6060   44.4560  123.6440 C   0  0  0  0  0  0  0  0  0  0  0  0
   14.2240   45.5740  123.9960 O   0  0  0  0  0  0  0  0  0  0  0  0
   15.7580   43.8680  124.3880 C   0  0  0  0  0  0  0  0  0  0  0  0
   16.3470   42.6850  124.1030 C   0  0  0  0  0  0  0  0  0  0  0  0
   17.5430   42.1380  124.9400 C   0  0  1  0  0  0  0  0  0  0  0  0
   18.8330   42.7980  124.4140 C   0  0  0  0  0  0  0  0  0  0  0  0
   17.4290   42.5080  126.4200 C   0  0  0  0  0  0  0  0  0  0  0  0
   17.9100   41.7940  127.4510 C   0  0  0  0  0  0  0  0  0  0  0  0
   17.7230   42.2290  128.7940 C   0  0  0  0  0  0  0  0  0  0  0  0
   17.4840   42.5900  129.8710 N   0  0  0  0  0  0  0  0  0  0  0  0
   18.6910   40.5570  127.2000 C   0  0  0  0  0  0  0  0  0  0  0  0
   19.4100   40.1030  128.0930 O   0  0  0  0  0  0  0  0  0  0  0  0
   18.6270   39.8820  125.8260 C   0  0  0  0  0  0  0  0  0  0  0  0
   20.0560   39.8750  125.2490 C   0  0  0  0  0  0  0  0  0  0  0  0
   18.2200   38.4100  126.0730 C   0  0  0  0  0  0  0  0  0  0  0  0
   17.5590   40.5730  124.9140 C   0  0  2  0  0  0  0  0  0  0  0  0
   17.5340   40.0370  123.4790 C   0  0  0  0  0  0  0  0  0  0  0  0
   16.2040   40.3970  122.8400 C   0  0  0  0  0  0  0  0  0  0  0  0
   15.8790   41.9210  122.8310 C   0  0  1  0  0  0  0  0  0  0  0  0
   16.7040   42.5230  121.6480 C   0  0  0  0  0  0  0  0  0  0  0  0
   12.4930   44.0390  122.1820 C   0  0  2  0  0  0  0  0  0  0  0  0
   11.6450   44.2110  123.4780 C   0  0  0  0  0  0  0  0  0  0  0  0
   12.3780   43.6580  119.6170 C   0  0  0  0  0  0  0  0  0  0  0  0
   13.0260   42.7980  118.9470 O   0  0  0  0  0  0  0  0  0  0  0  0
   12.0640   44.8270  119.2730 O   0  0  0  0  0  0  0  0  0  0  0  0
  2 33  1  0  0  0  0
  2  1  1  0  0  0  0
  3  2  1  0  0  0  0
  4  2  1  0  0  0  0
  5  6  1  0  0  0  0
  5  4  1  0  0  0  0
  6 34  1  6  0  0  0
  6  7  1  0  0  0  0
  6 32  1  0  0  0  0
  7  8  1  0  0  0  0
  8  9  1  0  0  0  0
  9 30  1  0  0  0  0
  9 10  1  1  0  0  0
 11  9  1  0  0  0  0
 11 12  1  1  0  0  0
 12 13  2  0  0  0  0
 12 14  1  0  0  0  0
 15 14  2  0  0  0  0
 15 16  1  0  0  0  0
 16 17  1  6  0  0  0
 16 18  1  0  0  0  0
 18 19  2  0  0  0  0
 19 20  1  0  0  0  0
 20 21  3  0  0  0  0
 22 19  1  0  0  0  0
 22 23  2  0  0  0  0
 24 26  1  0  0  0  0
 24 22  1  0  0  0  0
 25 24  1  0  0  0  0
 27 28  1  6  0  0  0
 27 16  1  0  0  0  0
 27 24  1  0  0  0  0
 29 28  1  0  0  0  0
 30 31  1  6  0  0  0
 30 29  1  0  0  0  0
 30 15  1  0  0  0  0
 32 11  1  0  0  0  0
 32 33  1  1  0  0  0
 35 34  2  0  0  0  0
 36 34  1  0  0  0  0
M  END
>  <minimizedAffinity>
-7.07019806

>  <CNNscore>
0.281876206

>  <CNNaffinity>
6.34598303

$$$$
