
 OpenBabel08282607413D

 37 42  0  0  0  0  0  0  0  0999 V2000
   16.5380   37.1980  124.1520 O   0  0  0  0  0  0  0  0  0  0  0  0
   16.2030   38.1170  123.0990 C   0  0  0  0  0  0  0  0  0  0  0  0
   13.7680   39.7350  122.7380 N   0  0  0  0  0  0  0  0  0  0  0  0
   15.0850   40.3780  122.8100 C   0  0  0  0  0  0  0  0  0  0  0  0
   13.6890   38.2940  122.9920 C   0  0  0  0  0  0  0  0  0  0  0  0
   16.0480   39.5400  123.6440 C   0  0  0  0  0  0  0  0  0  0  0  0
   14.9260   37.6040  122.4280 C   0  0  0  0  0  0  0  0  0  0  0  0
   12.6230   40.5300  122.8340 C   0  0  0  0  0  0  0  0  0  0  0  0
   10.6410   43.2440  121.1040 N   0  0  0  0  0  0  0  0  0  0  0  0
    9.4870   43.7570  121.6210 C   0  0  0  0  0  0  0  0  0  0  0  0
   11.1520   42.2680  121.9370 C   0  0  0  0  0  0  0  0  0  0  0  0
    9.2320   43.1050  122.8100 C   0  0  0  0  0  0  0  0  0  0  0  0
   12.3100   41.4680  121.8300 C   0  0  0  0  0  0  0  0  0  0  0  0
   10.2760   42.1600  123.0200 C   0  0  0  0  0  0  0  0  0  0  0  0
   10.5760   41.2180  124.0180 C   0  0  0  0  0  0  0  0  0  0  0  0
   11.7290   40.4230  123.9090 C   0  0  0  0  0  0  0  0  0  0  0  0
   11.2480   43.6850  119.8710 C   0  0  0  0  0  0  0  0  0  0  0  0
    7.9930   43.3790  123.7480 C   0  0  0  0  0  0  0  0  0  0  0  0
    7.8580   44.5550  124.2130 O   0  0  0  0  0  0  0  0  0  0  0  0
    7.2250   42.3890  123.9680 O   0  0  0  0  0  0  0  0  0  0  0  0
   17.7720   36.4970  123.9770 C   0  0  0  0  0  0  0  0  0  0  0  0
   18.7050   36.6660  125.1200 C   0  0  0  0  0  0  0  0  0  0  0  0
   19.3030   35.6610  125.9390 C   0  0  0  0  0  0  0  0  0  0  0  0
   19.2030   37.8440  125.6350 C   0  0  0  0  0  0  0  0  0  0  0  0
   20.1010   36.2070  126.8710 N   0  0  0  0  0  0  0  0  0  0  0  0
   20.0260   37.5730  126.6810 O   0  0  0  0  0  0  0  0  0  0  0  0
   19.1340   34.2140  125.8600 C   0  0  0  0  0  0  0  0  0  0  0  0
   19.9340   33.4420  124.9980 C   0  0  0  0  0  0  0  0  0  0  0  0
   18.1670   33.5560  126.6380 C   0  0  0  0  0  0  0  0  0  0  0  0
   19.7600   32.0550  124.9090 C   0  0  0  0  0  0  0  0  0  0  0  0
   18.0000   32.1680  126.5470 C   0  0  0  0  0  0  0  0  0  0  0  0
   18.7940   31.4190  125.6830 C   0  0  0  0  0  0  0  0  0  0  0  0
   21.1650   34.1420  123.9980 Cl  0  0  0  0  0  0  0  0  0  0  0  0
   17.1060   34.3970  127.7180 Cl  0  0  0  0  0  0  0  0  0  0  0  0
   18.8760   39.2700  125.1240 C   0  0  0  0  0  0  0  0  0  0  0  0
   19.8320   40.3920  125.4470 C   0  0  0  0  0  0  0  0  0  0  0  0
   18.4900   40.3340  126.1190 C   0  0  0  0  0  0  0  0  0  0  0  0
  2  6  1  0  0  0  0
  2  1  1  0  0  0  0
  3  4  1  0  0  0  0
  3  8  1  0  0  0  0
  3  5  1  0  0  0  0
  4  6  1  0  0  0  0
  7  5  1  0  0  0  0
  7  2  1  0  0  0  0
  8 16  1  0  0  0  0
  9 10  1  0  0  0  0
  9 11  1  0  0  0  0
 10 12  2  0  0  0  0
 11 14  2  0  0  0  0
 12 14  1  0  0  0  0
 12 18  1  0  0  0  0
 13 11  1  0  0  0  0
 13  8  2  0  0  0  0
 14 15  1  0  0  0  0
 16 15  2  0  0  0  0
 17  9  1  0  0  0  0
 18 20  2  0  0  0  0
 18 19  1  0  0  0  0
 21  1  1  0  0  0  0
 21 22  1  0  0  0  0
 22 24  2  0  0  0  0
 22 23  1  0  0  0  0
 23 25  2  0  0  0  0
 24 26  1  0  0  0  0
 26 25  1  0  0  0  0
 27 23  1  0  0  0  0
 27 29  1  0  0  0  0
 28 27  2  0  0  0  0
 29 34  1  0  0  0  0
 30 28  1  0  0  0  0
 30 32  2  0  0  0  0
 31 29  2  0  0  0  0
 32 31  1  0  0  0  0
 33 28  1  0  0  0  0
 35 36  1  0  0  0  0
 35 24  1  0  0  0  0
 35 37  1  0  0  0  0
 36 37  1  0  0  0  0
M  END
>  <minimizedAffinity>
-8.869133

>  <CNNscore>
0.165159225

>  <CNNaffinity>
5.74315405

$$$$

 OpenBabel08282607413D

 37 42  0  0  0  0  0  0  0  0999 V2000
   17.6910   37.2650  124.3260 O   0  0  0  0  0  0  0  0  0  0  0  0
   17.1610   38.1390  123.3150 C   0  0  0  0  0  0  0  0  0  0  0  0
   14.5850   39.5650  123.2450 N   0  0  0  0  0  0  0  0  0  0  0  0
   15.8480   40.3050  123.1500 C   0  0  0  0  0  0  0  0  0  0  0  0
   14.6460   38.1260  123.5170 C   0  0  0  0  0  0  0  0  0  0  0  0
   16.9670   39.5550  123.8650 C   0  0  0  0  0  0  0  0  0  0  0  0
   15.8540   37.5210  122.8100 C   0  0  0  0  0  0  0  0  0  0  0  0
   13.4030   40.2740  123.4750 C   0  0  0  0  0  0  0  0  0  0  0  0
   12.0070   43.6880  124.2990 N   0  0  0  0  0  0  0  0  0  0  0  0
   10.6700   43.9230  124.4430 C   0  0  0  0  0  0  0  0  0  0  0  0
   12.2350   42.3600  123.9960 C   0  0  0  0  0  0  0  0  0  0  0  0
   10.0080   42.7310  124.2290 C   0  0  0  0  0  0  0  0  0  0  0  0
   13.4340   41.6530  123.7630 C   0  0  0  0  0  0  0  0  0  0  0  0
   10.9860   41.7360  123.9440 C   0  0  0  0  0  0  0  0  0  0  0  0
   10.9470   40.3640  123.6440 C   0  0  0  0  0  0  0  0  0  0  0  0
   12.1420   39.6630  123.4120 C   0  0  0  0  0  0  0  0  0  0  0  0
   13.0320   44.6910  124.4660 C   0  0  0  0  0  0  0  0  0  0  0  0
    8.4440   42.5370  124.2930 C   0  0  0  0  0  0  0  0  0  0  0  0
    7.9490   41.5450  123.6720 O   0  0  0  0  0  0  0  0  0  0  0  0
    7.7980   43.4040  124.9660 O   0  0  0  0  0  0  0  0  0  0  0  0
   17.1750   35.9310  124.3060 C   0  0  0  0  0  0  0  0  0  0  0  0
   17.1970   35.2780  125.6400 C   0  0  0  0  0  0  0  0  0  0  0  0
   18.1420   34.3420  126.1580 C   0  0  0  0  0  0  0  0  0  0  0  0
   16.3020   35.4450  126.6750 C   0  0  0  0  0  0  0  0  0  0  0  0
   17.8280   33.9840  127.4150 N   0  0  0  0  0  0  0  0  0  0  0  0
   16.6710   34.6700  127.7270 O   0  0  0  0  0  0  0  0  0  0  0  0
   19.3170   33.7860  125.4990 C   0  0  0  0  0  0  0  0  0  0  0  0
   19.4530   32.3980  125.3190 C   0  0  0  0  0  0  0  0  0  0  0  0
   20.3460   34.6210  125.0310 C   0  0  0  0  0  0  0  0  0  0  0  0
   20.5900   31.8620  124.7020 C   0  0  0  0  0  0  0  0  0  0  0  0
   21.4800   34.0800  124.4110 C   0  0  0  0  0  0  0  0  0  0  0  0
   21.6030   32.7030  124.2490 C   0  0  0  0  0  0  0  0  0  0  0  0
   18.2450   31.2710  125.8460 Cl  0  0  0  0  0  0  0  0  0  0  0  0
   20.3080   36.3430  125.2150 Cl  0  0  0  0  0  0  0  0  0  0  0  0
   15.0510   36.3600  126.6570 C   0  0  0  0  0  0  0  0  0  0  0  0
   14.0020   36.1740  127.7250 C   0  0  0  0  0  0  0  0  0  0  0  0
   13.7120   35.7640  126.3090 C   0  0  0  0  0  0  0  0  0  0  0  0
  2  6  1  0  0  0  0
  2  1  1  0  0  0  0
  3  8  1  0  0  0  0
  3  5  1  0  0  0  0
  4  3  1  0  0  0  0
  4  6  1  0  0  0  0
  7  2  1  0  0  0  0
  7  5  1  0  0  0  0
  8 13  1  0  0  0  0
  9 10  1  0  0  0  0
  9 17  1  0  0  0  0
 11  9  1  0  0  0  0
 12 18  1  0  0  0  0
 12 10  2  0  0  0  0
 13 11  2  0  0  0  0
 14 11  1  0  0  0  0
 14 12  1  0  0  0  0
 15 14  2  0  0  0  0
 16  8  2  0  0  0  0
 16 15  1  0  0  0  0
 18 20  1  0  0  0  0
 19 18  2  0  0  0  0
 21  1  1  0  0  0  0
 21 22  1  0  0  0  0
 22 23  1  0  0  0  0
 22 24  2  0  0  0  0
 23 25  2  0  0  0  0
 24 26  1  0  0  0  0
 25 26  1  0  0  0  0
 27 23  1  0  0  0  0
 28 27  1  0  0  0  0
 28 33  1  0  0  0  0
 29 34  1  0  0  0  0
 29 27  2  0  0  0  0
 30 28  2  0  0  0  0
 31 29  1  0  0  0  0
 32 31  2  0  0  0  0
 32 30  1  0  0  0  0
 35 24  1  0  0  0  0
 35 36  1  0  0  0  0
 37 35  1  0  0  0  0
 37 36  1  0  0  0  0
M  END
>  <minimizedAffinity>
-9.29985237

>  <CNNscore>
0.152512684

>  <CNNaffinity>
6.37335968

$$$$

 OpenBabel08282607413D

 37 42  0  0  0  0  0  0  0  0999 V2000
   15.6830   39.5650  124.2110 O   0  0  0  0  0  0  0  0  0  0  0  0
   16.7050   38.7260  123.6470 C   0  0  0  0  0  0  0  0  0  0  0  0
   18.0050   36.3440  124.7930 N   0  0  0  0  0  0  0  0  0  0  0  0
   17.3030   36.2630  123.5070 C   0  0  0  0  0  0  0  0  0  0  0  0
   17.9180   37.5960  125.5490 C   0  0  0  0  0  0  0  0  0  0  0  0
   16.1880   37.3000  123.4370 C   0  0  0  0  0  0  0  0  0  0  0  0
   17.9140   38.7790  124.5870 C   0  0  0  0  0  0  0  0  0  0  0  0
   18.3780   35.1590  125.4340 C   0  0  0  0  0  0  0  0  0  0  0  0
   20.7300   32.2070  125.2590 N   0  0  0  0  0  0  0  0  0  0  0  0
   20.7280   31.2060  126.1870 C   0  0  0  0  0  0  0  0  0  0  0  0
   19.7760   33.1560  125.5680 C   0  0  0  0  0  0  0  0  0  0  0  0
   19.7580   31.5030  127.1230 C   0  0  0  0  0  0  0  0  0  0  0  0
   19.4090   34.3510  124.9140 C   0  0  0  0  0  0  0  0  0  0  0  0
   19.1510   32.7340  126.7440 C   0  0  0  0  0  0  0  0  0  0  0  0
   18.1320   33.5420  127.2750 C   0  0  0  0  0  0  0  0  0  0  0  0
   17.7680   34.7320  126.6220 C   0  0  0  0  0  0  0  0  0  0  0  0
   21.5980   32.2450  124.1060 C   0  0  0  0  0  0  0  0  0  0  0  0
   19.4100   30.6170  128.3810 C   0  0  0  0  0  0  0  0  0  0  0  0
   20.2480   29.7230  128.7200 O   0  0  0  0  0  0  0  0  0  0  0  0
   18.3030   30.8690  128.9560 O   0  0  0  0  0  0  0  0  0  0  0  0
   14.8530   38.9350  125.1900 C   0  0  0  0  0  0  0  0  0  0  0  0
   13.6790   38.2430  124.6000 C   0  0  0  0  0  0  0  0  0  0  0  0
   12.8560   38.6560  123.5090 C   0  0  0  0  0  0  0  0  0  0  0  0
   13.1330   37.0360  124.9810 C   0  0  0  0  0  0  0  0  0  0  0  0
   11.8930   37.7530  123.2610 N   0  0  0  0  0  0  0  0  0  0  0  0
   12.0660   36.7480  124.1920 O   0  0  0  0  0  0  0  0  0  0  0  0
   12.9600   39.8710  122.7090 C   0  0  0  0  0  0  0  0  0  0  0  0
   12.3480   41.0650  123.1310 C   0  0  0  0  0  0  0  0  0  0  0  0
   13.6690   39.8790  121.4950 C   0  0  0  0  0  0  0  0  0  0  0  0
   12.4320   42.2270  122.3530 C   0  0  0  0  0  0  0  0  0  0  0  0
   13.7530   41.0450  120.7250 C   0  0  0  0  0  0  0  0  0  0  0  0
   13.1340   42.2160  121.1510 C   0  0  0  0  0  0  0  0  0  0  0  0
   11.4550   41.1770  124.6120 Cl  0  0  0  0  0  0  0  0  0  0  0  0
   14.4450   38.4680  120.8580 Cl  0  0  0  0  0  0  0  0  0  0  0  0
   13.6340   36.1360  126.1390 C   0  0  0  0  0  0  0  0  0  0  0  0
   13.3740   36.5710  127.5590 C   0  0  0  0  0  0  0  0  0  0  0  0
   14.7680   36.6190  127.0040 C   0  0  0  0  0  0  0  0  0  0  0  0
  1 21  1  0  0  0  0
  2  1  1  0  0  0  0
  2  7  1  0  0  0  0
  3  8  1  0  0  0  0
  3  5  1  0  0  0  0
  4  3  1  0  0  0  0
  6  4  1  0  0  0  0
  6  2  1  0  0  0  0
  7  5  1  0  0  0  0
  8 16  1  0  0  0  0
  9 11  1  0  0  0  0
  9 10  1  0  0  0  0
 10 12  2  0  0  0  0
 11 14  2  0  0  0  0
 12 18  1  0  0  0  0
 13  8  2  0  0  0  0
 13 11  1  0  0  0  0
 14 12  1  0  0  0  0
 14 15  1  0  0  0  0
 16 15  2  0  0  0  0
 17  9  1  0  0  0  0
 18 19  2  0  0  0  0
 18 20  1  0  0  0  0
 22 24  2  0  0  0  0
 22 21  1  0  0  0  0
 23 22  1  0  0  0  0
 24 35  1  0  0  0  0
 25 23  2  0  0  0  0
 25 26  1  0  0  0  0
 26 24  1  0  0  0  0
 27 28  1  0  0  0  0
 27 23  1  0  0  0  0
 28 33  1  0  0  0  0
 29 27  2  0  0  0  0
 30 28  2  0  0  0  0
 31 32  2  0  0  0  0
 31 29  1  0  0  0  0
 32 30  1  0  0  0  0
 34 29  1  0  0  0  0
 35 37  1  0  0  0  0
 35 36  1  0  0  0  0
 37 36  1  0  0  0  0
M  END
>  <minimizedAffinity>
-9.91533279

>  <CNNscore>
0.148564711

>  <CNNaffinity>
6.00559998

$$$$

 OpenBabel08282607413D

 37 42  0  0  0  0  0  0  0  0999 V2000
   15.8350   36.6360  123.6940 O   0  0  0  0  0  0  0  0  0  0  0  0
   15.7810   37.8830  122.9820 C   0  0  0  0  0  0  0  0  0  0  0  0
   13.5390   39.7710  122.6940 N   0  0  0  0  0  0  0  0  0  0  0  0
   14.8150   40.2130  123.2670 C   0  0  0  0  0  0  0  0  0  0  0  0
   13.3690   38.3450  122.4060 C   0  0  0  0  0  0  0  0  0  0  0  0
   15.5330   39.0500  123.9420 C   0  0  0  0  0  0  0  0  0  0  0  0
   14.6890   37.7580  121.9170 C   0  0  0  0  0  0  0  0  0  0  0  0
   12.4220   40.6030  122.8120 C   0  0  0  0  0  0  0  0  0  0  0  0
   10.5110   43.3980  121.1350 N   0  0  0  0  0  0  0  0  0  0  0  0
    9.3800   43.9440  121.6720 C   0  0  0  0  0  0  0  0  0  0  0  0
   10.9980   42.3970  121.9510 C   0  0  0  0  0  0  0  0  0  0  0  0
    9.1190   43.2880  122.8570 C   0  0  0  0  0  0  0  0  0  0  0  0
   12.1280   41.5610  121.8220 C   0  0  0  0  0  0  0  0  0  0  0  0
   10.1330   42.3070  123.0450 C   0  0  0  0  0  0  0  0  0  0  0  0
   10.4140   41.3450  124.0290 C   0  0  0  0  0  0  0  0  0  0  0  0
   11.5380   40.5140  123.8980 C   0  0  0  0  0  0  0  0  0  0  0  0
   11.1160   43.8330  119.8990 C   0  0  0  0  0  0  0  0  0  0  0  0
    7.9010   43.5940  123.8140 C   0  0  0  0  0  0  0  0  0  0  0  0
    7.1310   42.6270  124.1110 O   0  0  0  0  0  0  0  0  0  0  0  0
    7.7870   44.7980  124.2100 O   0  0  0  0  0  0  0  0  0  0  0  0
   17.1200   36.2900  124.2180 C   0  0  0  0  0  0  0  0  0  0  0  0
   17.0480   35.5920  125.5260 C   0  0  0  0  0  0  0  0  0  0  0  0
   17.9460   34.6260  126.0720 C   0  0  0  0  0  0  0  0  0  0  0  0
   16.0890   35.7350  126.5070 C   0  0  0  0  0  0  0  0  0  0  0  0
   17.5470   34.2290  127.2920 N   0  0  0  0  0  0  0  0  0  0  0  0
   16.3800   34.9190  127.5520 O   0  0  0  0  0  0  0  0  0  0  0  0
   19.1560   34.0770  125.4710 C   0  0  0  0  0  0  0  0  0  0  0  0
   20.1570   34.9250  124.9630 C   0  0  0  0  0  0  0  0  0  0  0  0
   19.3520   32.6880  125.3790 C   0  0  0  0  0  0  0  0  0  0  0  0
   21.3100   34.3980  124.3690 C   0  0  0  0  0  0  0  0  0  0  0  0
   20.5090   32.1670  124.7880 C   0  0  0  0  0  0  0  0  0  0  0  0
   21.4860   33.0200  124.2820 C   0  0  0  0  0  0  0  0  0  0  0  0
   20.0300   36.6530  125.0280 Cl  0  0  0  0  0  0  0  0  0  0  0  0
   18.1840   31.5410  125.9460 Cl  0  0  0  0  0  0  0  0  0  0  0  0
   14.8530   36.6670  126.4400 C   0  0  0  0  0  0  0  0  0  0  0  0
   13.8330   36.5970  127.5490 C   0  0  0  0  0  0  0  0  0  0  0  0
   13.4950   36.0660  126.1860 C   0  0  0  0  0  0  0  0  0  0  0  0
  1 21  1  0  0  0  0
  2  1  1  0  0  0  0
  2  6  1  0  0  0  0
  3  8  1  0  0  0  0
  3  4  1  0  0  0  0
  4  6  1  0  0  0  0
  5  3  1  0  0  0  0
  7  5  1  0  0  0  0
  7  2  1  0  0  0  0
  8 16  1  0  0  0  0
  9 10  1  0  0  0  0
  9 11  1  0  0  0  0
 10 12  2  0  0  0  0
 11 14  2  0  0  0  0
 12 14  1  0  0  0  0
 12 18  1  0  0  0  0
 13 11  1  0  0  0  0
 13  8  2  0  0  0  0
 14 15  1  0  0  0  0
 16 15  2  0  0  0  0
 17  9  1  0  0  0  0
 18 19  2  0  0  0  0
 18 20  1  0  0  0  0
 21 22  1  0  0  0  0
 22 23  1  0  0  0  0
 22 24  2  0  0  0  0
 23 25  2  0  0  0  0
 24 26  1  0  0  0  0
 25 26  1  0  0  0  0
 27 23  1  0  0  0  0
 28 33  1  0  0  0  0
 28 27  2  0  0  0  0
 29 27  1  0  0  0  0
 29 34  1  0  0  0  0
 30 28  1  0  0  0  0
 31 29  2  0  0  0  0
 32 30  2  0  0  0  0
 32 31  1  0  0  0  0
 35 24  1  0  0  0  0
 35 36  1  0  0  0  0
 37 35  1  0  0  0  0
 37 36  1  0  0  0  0
M  END
>  <minimizedAffinity>
-9.68109608

>  <CNNscore>
0.14651002

>  <CNNaffinity>
6.10352755

$$$$

 OpenBabel08282607413D

 37 42  0  0  0  0  0  0  0  0999 V2000
   15.4270   36.6230  124.0170 O   0  0  0  0  0  0  0  0  0  0  0  0
   14.7680   37.7550  124.6070 C   0  0  0  0  0  0  0  0  0  0  0  0
   13.4830   40.0580  123.2950 N   0  0  0  0  0  0  0  0  0  0  0  0
   12.7210   39.2030  124.2120 C   0  0  0  0  0  0  0  0  0  0  0  0
   14.8460   39.6520  122.9450 C   0  0  0  0  0  0  0  0  0  0  0  0
   13.2860   37.7870  124.2230 C   0  0  0  0  0  0  0  0  0  0  0  0
   15.5180   39.0110  124.1550 C   0  0  0  0  0  0  0  0  0  0  0  0
   12.7920   40.9690  122.4910 C   0  0  0  0  0  0  0  0  0  0  0  0
    9.5040   42.7830  122.0710 N   0  0  0  0  0  0  0  0  0  0  0  0
    9.2640   43.6480  121.0420 C   0  0  0  0  0  0  0  0  0  0  0  0
   10.7820   42.2680  121.9830 C   0  0  0  0  0  0  0  0  0  0  0  0
   10.4050   43.7040  120.2670 C   0  0  0  0  0  0  0  0  0  0  0  0
   11.4710   41.3490  122.8020 C   0  0  0  0  0  0  0  0  0  0  0  0
   11.3720   42.8380  120.8520 C   0  0  0  0  0  0  0  0  0  0  0  0
   12.6930   42.4740  120.5440 C   0  0  0  0  0  0  0  0  0  0  0  0
   13.3780   41.5590  121.3610 C   0  0  0  0  0  0  0  0  0  0  0  0
    8.5390   42.4430  123.0890 C   0  0  0  0  0  0  0  0  0  0  0  0
   10.5770   44.5850  118.9690 C   0  0  0  0  0  0  0  0  0  0  0  0
   11.6580   45.2420  118.8440 O   0  0  0  0  0  0  0  0  0  0  0  0
    9.6060   44.5680  118.1460 O   0  0  0  0  0  0  0  0  0  0  0  0
   16.7490   36.3680  124.5020 C   0  0  0  0  0  0  0  0  0  0  0  0
   16.7650   35.6080  125.7770 C   0  0  0  0  0  0  0  0  0  0  0  0
   17.7470   34.6860  126.2520 C   0  0  0  0  0  0  0  0  0  0  0  0
   15.8290   35.6350  126.7870 C   0  0  0  0  0  0  0  0  0  0  0  0
   17.4140   34.2060  127.4620 N   0  0  0  0  0  0  0  0  0  0  0  0
   16.2080   34.7960  127.7850 O   0  0  0  0  0  0  0  0  0  0  0  0
   18.9750   34.2560  125.5940 C   0  0  0  0  0  0  0  0  0  0  0  0
   19.9160   35.1970  125.1370 C   0  0  0  0  0  0  0  0  0  0  0  0
   19.2480   32.8920  125.3940 C   0  0  0  0  0  0  0  0  0  0  0  0
   21.0860   34.7830  124.4890 C   0  0  0  0  0  0  0  0  0  0  0  0
   20.4220   32.4850  124.7490 C   0  0  0  0  0  0  0  0  0  0  0  0
   21.3390   33.4290  124.2940 C   0  0  0  0  0  0  0  0  0  0  0  0
   19.6910   36.9040  125.3350 Cl  0  0  0  0  0  0  0  0  0  0  0  0
   18.1590   31.6390  125.8890 Cl  0  0  0  0  0  0  0  0  0  0  0  0
   14.5270   36.4760  126.7980 C   0  0  0  0  0  0  0  0  0  0  0  0
   13.9620   36.9200  128.1240 C   0  0  0  0  0  0  0  0  0  0  0  0
   13.2590   35.8580  127.3280 C   0  0  0  0  0  0  0  0  0  0  0  0
  1 21  1  0  0  0  0
  1  2  1  0  0  0  0
  3  4  1  0  0  0  0
  4  6  1  0  0  0  0
  5  3  1  0  0  0  0
  5  7  1  0  0  0  0
  6  2  1  0  0  0  0
  7  2  1  0  0  0  0
  8 13  1  0  0  0  0
  8  3  1  0  0  0  0
  9 17  1  0  0  0  0
 10  9  1  0  0  0  0
 11  9  1  0  0  0  0
 11 13  2  0  0  0  0
 12 14  1  0  0  0  0
 12 10  2  0  0  0  0
 14 11  1  0  0  0  0
 15 14  2  0  0  0  0
 15 16  1  0  0  0  0
 16  8  2  0  0  0  0
 18 12  1  0  0  0  0
 19 18  1  0  0  0  0
 20 18  2  0  0  0  0
 21 22  1  0  0  0  0
 22 23  1  0  0  0  0
 22 24  2  0  0  0  0
 23 25  2  0  0  0  0
 24 35  1  0  0  0  0
 24 26  1  0  0  0  0
 25 26  1  0  0  0  0
 27 23  1  0  0  0  0
 28 33  1  0  0  0  0
 28 27  2  0  0  0  0
 29 27  1  0  0  0  0
 29 34  1  0  0  0  0
 30 28  1  0  0  0  0
 31 29  2  0  0  0  0
 32 30  2  0  0  0  0
 32 31  1  0  0  0  0
 35 37  1  0  0  0  0
 35 36  1  0  0  0  0
 37 36  1  0  0  0  0
M  END
>  <minimizedAffinity>
-8.90111065

>  <CNNscore>
0.108200498

>  <CNNaffinity>
5.80500793

$$$$

 OpenBabel08282607413D

 37 42  0  0  0  0  0  0  0  0999 V2000
   15.0290   37.0980  124.0880 O   0  0  0  0  0  0  0  0  0  0  0  0
   14.7760   38.1670  123.1610 C   0  0  0  0  0  0  0  0  0  0  0  0
   12.7760   40.3250  123.3040 N   0  0  0  0  0  0  0  0  0  0  0  0
   14.2050   40.6400  123.1970 C   0  0  0  0  0  0  0  0  0  0  0  0
   12.3900   38.9220  123.4800 C   0  0  0  0  0  0  0  0  0  0  0  0
   15.0490   39.5280  123.8100 C   0  0  0  0  0  0  0  0  0  0  0  0
   13.3290   38.0260  122.6800 C   0  0  0  0  0  0  0  0  0  0  0  0
   11.8820   41.3470  123.6340 C   0  0  0  0  0  0  0  0  0  0  0  0
   11.6480   44.9380  124.7890 N   0  0  0  0  0  0  0  0  0  0  0  0
   10.4560   45.5690  125.0000 C   0  0  0  0  0  0  0  0  0  0  0  0
   11.4410   43.6390  124.3690 C   0  0  0  0  0  0  0  0  0  0  0  0
    9.4490   44.6710  124.7100 C   0  0  0  0  0  0  0  0  0  0  0  0
   12.3510   42.6140  124.0350 C   0  0  0  0  0  0  0  0  0  0  0  0
   10.0580   43.4480  124.3090 C   0  0  0  0  0  0  0  0  0  0  0  0
    9.5840   42.1920  123.8970 C   0  0  0  0  0  0  0  0  0  0  0  0
   10.4920   41.1730  123.5650 C   0  0  0  0  0  0  0  0  0  0  0  0
   12.9400   45.5460  125.0030 C   0  0  0  0  0  0  0  0  0  0  0  0
    7.9040   44.9760  124.8140 C   0  0  0  0  0  0  0  0  0  0  0  0
    7.2580   45.1060  123.7270 O   0  0  0  0  0  0  0  0  0  0  0  0
    7.4290   45.0720  125.9900 O   0  0  0  0  0  0  0  0  0  0  0  0
   15.7670   37.4680  125.2560 C   0  0  0  0  0  0  0  0  0  0  0  0
   15.8330   36.3860  126.2710 C   0  0  0  0  0  0  0  0  0  0  0  0
   16.8950   35.4660  126.5250 C   0  0  0  0  0  0  0  0  0  0  0  0
   14.8740   36.0400  127.1980 C   0  0  0  0  0  0  0  0  0  0  0  0
   16.5850   34.6370  127.5350 N   0  0  0  0  0  0  0  0  0  0  0  0
   15.3160   34.9950  127.9440 O   0  0  0  0  0  0  0  0  0  0  0  0
   18.1780   35.3570  125.8390 C   0  0  0  0  0  0  0  0  0  0  0  0
   18.8600   36.5060  125.4010 C   0  0  0  0  0  0  0  0  0  0  0  0
   18.7620   34.1020  125.5960 C   0  0  0  0  0  0  0  0  0  0  0  0
   20.0840   36.3990  124.7260 C   0  0  0  0  0  0  0  0  0  0  0  0
   19.9870   34.0020  124.9240 C   0  0  0  0  0  0  0  0  0  0  0  0
   20.6450   35.1480  124.4880 C   0  0  0  0  0  0  0  0  0  0  0  0
   18.2420   38.1050  125.6530 Cl  0  0  0  0  0  0  0  0  0  0  0  0
   18.0090   32.6140  126.0650 Cl  0  0  0  0  0  0  0  0  0  0  0  0
   13.4900   36.7160  127.3710 C   0  0  0  0  0  0  0  0  0  0  0  0
   12.4320   36.4780  126.3230 C   0  0  0  0  0  0  0  0  0  0  0  0
   13.0920   37.8230  126.4290 C   0  0  0  0  0  0  0  0  0  0  0  0
  1 21  1  0  0  0  0
  2  6  1  0  0  0  0
  2  1  1  0  0  0  0
  3  5  1  0  0  0  0
  3  8  1  0  0  0  0
  4  3  1  0  0  0  0
  4  6  1  0  0  0  0
  7  2  1  0  0  0  0
  7  5  1  0  0  0  0
  8 13  1  0  0  0  0
  9 10  1  0  0  0  0
  9 17  1  0  0  0  0
 11  9  1  0  0  0  0
 12 18  1  0  0  0  0
 12 10  2  0  0  0  0
 13 11  2  0  0  0  0
 14 11  1  0  0  0  0
 14 12  1  0  0  0  0
 15 14  2  0  0  0  0
 16  8  2  0  0  0  0
 16 15  1  0  0  0  0
 18 20  1  0  0  0  0
 19 18  2  0  0  0  0
 21 22  1  0  0  0  0
 22 23  1  0  0  0  0
 22 24  2  0  0  0  0
 23 25  2  0  0  0  0
 24 35  1  0  0  0  0
 24 26  1  0  0  0  0
 25 26  1  0  0  0  0
 27 23  1  0  0  0  0
 28 33  1  0  0  0  0
 28 27  2  0  0  0  0
 29 27  1  0  0  0  0
 29 34  1  0  0  0  0
 30 28  1  0  0  0  0
 31 29  2  0  0  0  0
 32 30  2  0  0  0  0
 32 31  1  0  0  0  0
 36 37  1  0  0  0  0
 36 35  1  0  0  0  0
 37 35  1  0  0  0  0
M  END
>  <minimizedAffinity>
-9.00852203

>  <CNNscore>
0.10164275

>  <CNNaffinity>
5.69735336

$$$$

 OpenBabel08282607413D

 37 42  0  0  0  0  0  0  0  0999 V2000
   16.4280   36.6020  124.0180 O   0  0  0  0  0  0  0  0  0  0  0  0
   16.3830   38.0010  123.6940 C   0  0  0  0  0  0  0  0  0  0  0  0
   14.0660   39.8180  123.5880 N   0  0  0  0  0  0  0  0  0  0  0  0
   15.2020   40.1110  124.4680 C   0  0  0  0  0  0  0  0  0  0  0  0
   14.0550   38.5350  122.8800 C   0  0  0  0  0  0  0  0  0  0  0  0
   15.9010   38.8240  124.8930 C   0  0  0  0  0  0  0  0  0  0  0  0
   15.4760   38.1620  122.4710 C   0  0  0  0  0  0  0  0  0  0  0  0
   12.8810   40.5410  123.7520 C   0  0  0  0  0  0  0  0  0  0  0  0
   11.4790   43.9880  124.4110 N   0  0  0  0  0  0  0  0  0  0  0  0
   10.1400   44.2350  124.4990 C   0  0  0  0  0  0  0  0  0  0  0  0
   11.7090   42.6500  124.1610 C   0  0  0  0  0  0  0  0  0  0  0  0
    9.4780   43.0400  124.2990 C   0  0  0  0  0  0  0  0  0  0  0  0
   12.9110   41.9290  123.9950 C   0  0  0  0  0  0  0  0  0  0  0  0
   10.4590   42.0310  124.0830 C   0  0  0  0  0  0  0  0  0  0  0  0
   10.4220   40.6500  123.8270 C   0  0  0  0  0  0  0  0  0  0  0  0
   11.6200   39.9350  123.6620 C   0  0  0  0  0  0  0  0  0  0  0  0
   12.5040   44.9900  124.5820 C   0  0  0  0  0  0  0  0  0  0  0  0
    7.9110   42.8580  124.3130 C   0  0  0  0  0  0  0  0  0  0  0  0
    7.4320   41.8480  123.7060 O   0  0  0  0  0  0  0  0  0  0  0  0
    7.2480   43.7490  124.9330 O   0  0  0  0  0  0  0  0  0  0  0  0
   16.8680   36.2990  125.3440 C   0  0  0  0  0  0  0  0  0  0  0  0
   18.3430   36.3810  125.5010 C   0  0  0  0  0  0  0  0  0  0  0  0
   19.2800   35.3200  125.6860 C   0  0  0  0  0  0  0  0  0  0  0  0
   19.1300   37.5120  125.4950 C   0  0  0  0  0  0  0  0  0  0  0  0
   20.5340   35.7920  125.7790 N   0  0  0  0  0  0  0  0  0  0  0  0
   20.4310   37.1650  125.6680 O   0  0  0  0  0  0  0  0  0  0  0  0
   19.0160   33.8880  125.7780 C   0  0  0  0  0  0  0  0  0  0  0  0
   18.1500   33.3770  126.7620 C   0  0  0  0  0  0  0  0  0  0  0  0
   19.6230   32.9830  124.8900 C   0  0  0  0  0  0  0  0  0  0  0  0
   17.9120   32.0000  126.8610 C   0  0  0  0  0  0  0  0  0  0  0  0
   19.3770   31.6090  124.9920 C   0  0  0  0  0  0  0  0  0  0  0  0
   18.5250   31.1170  125.9770 C   0  0  0  0  0  0  0  0  0  0  0  0
   17.3400   34.3970  127.9050 Cl  0  0  0  0  0  0  0  0  0  0  0  0
   20.7250   33.4870  123.6520 Cl  0  0  0  0  0  0  0  0  0  0  0  0
   18.6270   38.9690  125.3310 C   0  0  0  0  0  0  0  0  0  0  0  0
   19.5050   39.9620  124.6090 C   0  0  0  0  0  0  0  0  0  0  0  0
   19.3140   40.0720  126.0940 C   0  0  0  0  0  0  0  0  0  0  0  0
  1 21  1  0  0  0  0
  2  1  1  0  0  0  0
  2  6  1  0  0  0  0
  3  8  1  0  0  0  0
  3  4  1  0  0  0  0
  4  6  1  0  0  0  0
  5  3  1  0  0  0  0
  7  5  1  0  0  0  0
  7  2  1  0  0  0  0
  8 13  1  0  0  0  0
  9 10  1  0  0  0  0
  9 17  1  0  0  0  0
 11  9  1  0  0  0  0
 12 18  1  0  0  0  0
 12 10  2  0  0  0  0
 13 11  2  0  0  0  0
 14 11  1  0  0  0  0
 14 12  1  0  0  0  0
 15 14  2  0  0  0  0
 16  8  2  0  0  0  0
 16 15  1  0  0  0  0
 18 20  1  0  0  0  0
 19 18  2  0  0  0  0
 21 22  1  0  0  0  0
 22 23  1  0  0  0  0
 23 27  1  0  0  0  0
 23 25  2  0  0  0  0
 24 22  2  0  0  0  0
 24 26  1  0  0  0  0
 26 25  1  0  0  0  0
 27 28  1  0  0  0  0
 28 30  2  0  0  0  0
 28 33  1  0  0  0  0
 29 31  1  0  0  0  0
 29 27  2  0  0  0  0
 31 32  2  0  0  0  0
 32 30  1  0  0  0  0
 34 29  1  0  0  0  0
 35 24  1  0  0  0  0
 35 37  1  0  0  0  0
 36 35  1  0  0  0  0
 36 37  1  0  0  0  0
M  END
>  <minimizedAffinity>
-8.43739986

>  <CNNscore>
0.0956257582

>  <CNNaffinity>
5.69325399

$$$$

 OpenBabel08282607413D

 37 42  0  0  0  0  0  0  0  0999 V2000
   15.8620   36.4900  124.6810 O   0  0  0  0  0  0  0  0  0  0  0  0
   14.8290   36.8950  123.7670 C   0  0  0  0  0  0  0  0  0  0  0  0
   13.1210   39.2940  123.8260 N   0  0  0  0  0  0  0  0  0  0  0  0
   13.9680   39.0120  122.6630 C   0  0  0  0  0  0  0  0  0  0  0  0
   13.2560   38.4320  125.0040 C   0  0  0  0  0  0  0  0  0  0  0  0
   15.1980   38.2100  123.0740 C   0  0  0  0  0  0  0  0  0  0  0  0
   13.5250   36.9970  124.5630 C   0  0  0  0  0  0  0  0  0  0  0  0
   12.5320   40.5560  123.9430 C   0  0  0  0  0  0  0  0  0  0  0  0
   13.2490   44.2660  123.9490 N   0  0  0  0  0  0  0  0  0  0  0  0
   12.2720   45.2060  124.1150 C   0  0  0  0  0  0  0  0  0  0  0  0
   12.7090   42.9960  123.9850 C   0  0  0  0  0  0  0  0  0  0  0  0
   11.0710   44.5420  124.2580 C   0  0  0  0  0  0  0  0  0  0  0  0
   13.3130   41.7270  123.8640 C   0  0  0  0  0  0  0  0  0  0  0  0
   11.3330   43.1460  124.1760 C   0  0  0  0  0  0  0  0  0  0  0  0
   10.5470   41.9830  124.2420 C   0  0  0  0  0  0  0  0  0  0  0  0
   11.1500   40.7200  124.1210 C   0  0  0  0  0  0  0  0  0  0  0  0
   14.6500   44.5700  123.7860 C   0  0  0  0  0  0  0  0  0  0  0  0
    9.6710   45.2380  124.4720 C   0  0  0  0  0  0  0  0  0  0  0  0
    9.2760   45.4070  125.6690 O   0  0  0  0  0  0  0  0  0  0  0  0
    9.0420   45.5710  123.4170 O   0  0  0  0  0  0  0  0  0  0  0  0
   17.1570   36.3210  124.0980 C   0  0  0  0  0  0  0  0  0  0  0  0
   18.2630   36.6530  125.0320 C   0  0  0  0  0  0  0  0  0  0  0  0
   19.1040   35.7650  125.7680 C   0  0  0  0  0  0  0  0  0  0  0  0
   18.7230   37.9040  125.3830 C   0  0  0  0  0  0  0  0  0  0  0  0
   20.0010   36.4450  126.5020 N   0  0  0  0  0  0  0  0  0  0  0  0
   19.7490   37.7820  126.2640 O   0  0  0  0  0  0  0  0  0  0  0  0
   19.0750   34.3070  125.7940 C   0  0  0  0  0  0  0  0  0  0  0  0
   19.9620   33.5560  125.0020 C   0  0  0  0  0  0  0  0  0  0  0  0
   18.1590   33.6160  126.6060 C   0  0  0  0  0  0  0  0  0  0  0  0
   19.9220   32.1550  125.0130 C   0  0  0  0  0  0  0  0  0  0  0  0
   18.1270   32.2160  126.6150 C   0  0  0  0  0  0  0  0  0  0  0  0
   19.0040   31.4870  125.8190 C   0  0  0  0  0  0  0  0  0  0  0  0
   21.1400   34.2970  123.9690 Cl  0  0  0  0  0  0  0  0  0  0  0  0
   17.0010   34.4280  127.6070 Cl  0  0  0  0  0  0  0  0  0  0  0  0
   18.1600   39.2560  124.8760 C   0  0  0  0  0  0  0  0  0  0  0  0
   19.1200   40.2720  124.3080 C   0  0  0  0  0  0  0  0  0  0  0  0
   18.4740   40.5140  125.6430 C   0  0  0  0  0  0  0  0  0  0  0  0
  2  7  1  0  0  0  0
  2  1  1  0  0  0  0
  3  8  1  0  0  0  0
  3  5  1  0  0  0  0
  4  6  1  0  0  0  0
  4  3  1  0  0  0  0
  6  2  1  0  0  0  0
  7  5  1  0  0  0  0
  8 16  1  0  0  0  0
  9 11  1  0  0  0  0
  9 10  1  0  0  0  0
 10 12  2  0  0  0  0
 11 14  2  0  0  0  0
 12 18  1  0  0  0  0
 13  8  2  0  0  0  0
 13 11  1  0  0  0  0
 14 15  1  0  0  0  0
 14 12  1  0  0  0  0
 16 15  2  0  0  0  0
 17  9  1  0  0  0  0
 18 19  1  0  0  0  0
 20 18  2  0  0  0  0
 21  1  1  0  0  0  0
 21 22  1  0  0  0  0
 22 24  2  0  0  0  0
 22 23  1  0  0  0  0
 23 27  1  0  0  0  0
 23 25  2  0  0  0  0
 24 26  1  0  0  0  0
 26 25  1  0  0  0  0
 27 29  1  0  0  0  0
 28 30  1  0  0  0  0
 28 27  2  0  0  0  0
 29 31  2  0  0  0  0
 29 34  1  0  0  0  0
 30 32  2  0  0  0  0
 32 31  1  0  0  0  0
 33 28  1  0  0  0  0
 35 24  1  0  0  0  0
 35 37  1  0  0  0  0
 36 35  1  0  0  0  0
 36 37  1  0  0  0  0
M  END
>  <minimizedAffinity>
-8.59009647

>  <CNNscore>
0.0947256237

>  <CNNaffinity>
5.63669205

$$$$

 OpenBabel08282607413D

 37 42  0  0  0  0  0  0  0  0999 V2000
   15.1650   37.7830  124.6830 O   0  0  0  0  0  0  0  0  0  0  0  0
   15.6320   38.7370  123.7150 C   0  0  0  0  0  0  0  0  0  0  0  0
   14.0830   40.5560  121.9920 N   0  0  0  0  0  0  0  0  0  0  0  0
   15.0870   41.0860  122.9200 C   0  0  0  0  0  0  0  0  0  0  0  0
   13.7760   39.1240  122.0500 C   0  0  0  0  0  0  0  0  0  0  0  0
   15.2480   40.1620  124.1230 C   0  0  0  0  0  0  0  0  0  0  0  0
   15.0460   38.3380  122.3570 C   0  0  0  0  0  0  0  0  0  0  0  0
   13.1870   41.4430  121.3880 C   0  0  0  0  0  0  0  0  0  0  0  0
    9.7900   43.0600  121.7460 N   0  0  0  0  0  0  0  0  0  0  0  0
    9.2890   43.9340  120.8250 C   0  0  0  0  0  0  0  0  0  0  0  0
   11.0460   42.6280  121.3680 C   0  0  0  0  0  0  0  0  0  0  0  0
   10.2320   44.0810  119.8280 C   0  0  0  0  0  0  0  0  0  0  0  0
   11.9440   41.7320  121.9870 C   0  0  0  0  0  0  0  0  0  0  0  0
   11.3480   43.2620  120.1610 C   0  0  0  0  0  0  0  0  0  0  0  0
   12.5900   42.9880  119.5660 C   0  0  0  0  0  0  0  0  0  0  0  0
   13.4830   42.0970  120.1830 C   0  0  0  0  0  0  0  0  0  0  0  0
    9.0860   42.6350  122.9320 C   0  0  0  0  0  0  0  0  0  0  0  0
   10.0730   45.0040  118.5580 C   0  0  0  0  0  0  0  0  0  0  0  0
    8.9020   45.1630  118.0910 O   0  0  0  0  0  0  0  0  0  0  0  0
   11.1440   45.5140  118.0970 O   0  0  0  0  0  0  0  0  0  0  0  0
   15.7590   36.4850  124.5930 C   0  0  0  0  0  0  0  0  0  0  0  0
   15.9750   35.8500  125.9170 C   0  0  0  0  0  0  0  0  0  0  0  0
   17.1270   35.1550  126.3950 C   0  0  0  0  0  0  0  0  0  0  0  0
   15.1010   35.8020  126.9820 C   0  0  0  0  0  0  0  0  0  0  0  0
   16.9460   34.7280  127.6560 N   0  0  0  0  0  0  0  0  0  0  0  0
   15.6740   35.1280  128.0120 O   0  0  0  0  0  0  0  0  0  0  0  0
   18.3760   34.8870  125.6920 C   0  0  0  0  0  0  0  0  0  0  0  0
   18.8470   33.5710  125.5370 C   0  0  0  0  0  0  0  0  0  0  0  0
   19.1430   35.9360  125.1560 C   0  0  0  0  0  0  0  0  0  0  0  0
   20.0570   33.3160  124.8770 C   0  0  0  0  0  0  0  0  0  0  0  0
   20.3490   35.6740  124.4950 C   0  0  0  0  0  0  0  0  0  0  0  0
   20.8070   34.3660  124.3580 C   0  0  0  0  0  0  0  0  0  0  0  0
   17.9840   32.1980  126.1470 Cl  0  0  0  0  0  0  0  0  0  0  0  0
   18.6820   37.5990  125.3030 Cl  0  0  0  0  0  0  0  0  0  0  0  0
   13.6730   36.4040  127.0150 C   0  0  0  0  0  0  0  0  0  0  0  0
   12.6280   35.8420  126.0830 C   0  0  0  0  0  0  0  0  0  0  0  0
   13.1920   37.2120  125.8380 C   0  0  0  0  0  0  0  0  0  0  0  0
  2  6  1  0  0  0  0
  2  1  1  0  0  0  0
  3  5  1  0  0  0  0
  3  4  1  0  0  0  0
  4  6  1  0  0  0  0
  5  7  1  0  0  0  0
  7  2  1  0  0  0  0
  8 13  1  0  0  0  0
  8  3  1  0  0  0  0
  9 17  1  0  0  0  0
 10  9  1  0  0  0  0
 11  9  1  0  0  0  0
 11 13  2  0  0  0  0
 12 14  1  0  0  0  0
 12 10  2  0  0  0  0
 14 11  1  0  0  0  0
 15 14  2  0  0  0  0
 15 16  1  0  0  0  0
 16  8  2  0  0  0  0
 18 12  1  0  0  0  0
 19 18  2  0  0  0  0
 20 18  1  0  0  0  0
 21  1  1  0  0  0  0
 21 22  1  0  0  0  0
 22 23  1  0  0  0  0
 22 24  2  0  0  0  0
 23 25  2  0  0  0  0
 24 35  1  0  0  0  0
 24 26  1  0  0  0  0
 25 26  1  0  0  0  0
 27 23  1  0  0  0  0
 28 27  1  0  0  0  0
 28 33  1  0  0  0  0
 29 34  1  0  0  0  0
 29 27  2  0  0  0  0
 30 28  2  0  0  0  0
 31 29  1  0  0  0  0
 32 31  2  0  0  0  0
 32 30  1  0  0  0  0
 36 35  1  0  0  0  0
 37 36  1  0  0  0  0
 37 35  1  0  0  0  0
M  END
>  <minimizedAffinity>
-8.9022789

>  <CNNscore>
0.0895728171

>  <CNNaffinity>
5.86558962

$$$$
