
 OpenBabel08282605353D

 30 33  0  0  1  0  0  0  0  0999 V2000
   16.9420   38.6070  123.5970 C   0  0  2  0  0  0  0  0  0  0  0  0
   15.8010   37.9800  124.4630 C   0  0  0  0  0  0  0  0  0  0  0  0
   14.6770   38.3160  124.7480 O   0  0  0  0  0  0  0  0  0  0  0  0
   16.6320   36.9910  124.8430 N   0  0  0  0  0  0  0  0  0  0  0  0
   16.6130   35.9260  125.6960 C   0  0  0  0  0  0  0  0  0  0  0  0
   17.7750   35.2940  126.0140 C   0  0  0  0  0  0  0  0  0  0  0  0
   19.1460   35.7690  125.5580 C   0  0  0  0  0  0  0  0  0  0  0  0
   19.2090   37.5120  125.0310 S   0  0  0  0  0  0  0  0  0  0  0  0
   17.7400   37.3280  123.9810 C   0  0  2  0  0  0  0  0  0  0  0  0
   17.4470   39.9220  124.0830 N   0  0  0  0  0  0  0  0  0  0  0  0
   16.6210   39.6810  126.2050 O   0  0  0  0  0  0  0  0  0  0  0  0
   17.1860   40.3690  125.3580 C   0  0  0  0  0  0  0  0  0  0  0  0
   17.9080   40.5400  123.4220 H   0  0  0  0  0  0  0  0  0  0  0  0
   17.6560   41.7850  125.6370 C   0  0  0  0  0  0  0  0  0  0  0  0
   18.9860   41.7490  126.3260 C   0  0  0  0  0  0  0  0  0  0  0  0
   20.2370   41.9420  125.7730 C   0  0  0  0  0  0  0  0  0  0  0  0
   19.0830   41.4290  128.0050 S   0  0  0  0  0  0  0  0  0  0  0  0
   21.2780   41.8350  126.7390 C   0  0  0  0  0  0  0  0  0  0  0  0
   20.7870   41.5600  127.9960 C   0  0  0  0  0  0  0  0  0  0  0  0
   15.2320   35.4770  126.3070 C   0  0  0  0  0  0  0  0  0  0  0  0
   15.0960   35.7280  127.5450 O   0  0  0  0  0  0  0  0  0  0  0  0
   14.4230   34.9680  125.4800 O   0  0  0  0  0  0  0  0  0  0  0  0
   17.8390   34.0600  126.9090 C   0  0  0  0  0  0  0  0  0  0  0  0
   18.9560   32.7720  126.2090 S   0  0  0  0  0  0  0  0  0  0  0  0
   18.9520   31.7150  127.5930 C   0  0  2  0  0  0  0  0  0  0  0  0
   19.9720   31.6840  128.5080 N   0  0  0  0  0  0  0  0  0  0  0  0
   18.0950   30.6970  127.6620 N   0  0  0  0  0  0  0  0  0  0  0  0
   19.8590   30.4680  128.9990 C   0  0  0  0  0  0  0  0  0  0  0  0
   18.8090   29.8330  128.4060 N   0  0  0  0  0  0  0  0  0  0  0  0
   18.6460   28.8310  128.3080 H   0  0  0  0  0  0  0  0  0  0  0  0
  1  9  1  0  0  0  0
  1 10  1  1  0  0  0
  1  2  1  0  0  0  0
  2  3  2  0  0  0  0
  2  4  1  0  0  0  0
  4  5  1  0  0  0  0
  5  6  2  0  0  0  0
  5 20  1  0  0  0  0
  6 23  1  0  0  0  0
  7  6  1  0  0  0  0
  8  7  1  0  0  0  0
  9  4  1  0  0  0  0
  9  8  1  1  0  0  0
 10 12  1  0  0  0  0
 12 14  1  0  0  0  0
 12 11  2  0  0  0  0
 13 10  1  0  0  0  0
 14 15  1  0  0  0  0
 15 17  1  0  0  0  0
 16 15  2  0  0  0  0
 16 18  1  0  0  0  0
 18 19  2  0  0  0  0
 19 17  1  0  0  0  0
 20 21  1  0  0  0  0
 22 20  2  0  0  0  0
 24 23  1  0  0  0  0
 25 24  1  6  0  0  0
 25 27  1  0  0  0  0
 25 26  1  0  0  0  0
 26 28  1  0  0  0  0
 27 29  1  0  0  0  0
 29 28  1  0  0  0  0
 30 29  1  0  0  0  0
M  END
>  <minimizedAffinity>
-8.11301804

>  <CNNscore>
0.867768109

>  <CNNaffinity>
6.84923697

$$$$

 OpenBabel08282605353D

 30 33  0  0  1  0  0  0  0  0999 V2000
   17.9460   38.2030  123.9140 C   0  0  2  0  0  0  0  0  0  0  0  0
   16.7020   37.7260  124.7300 C   0  0  0  0  0  0  0  0  0  0  0  0
   15.6520   38.2350  125.0430 O   0  0  0  0  0  0  0  0  0  0  0  0
   17.3370   36.5760  125.0280 N   0  0  0  0  0  0  0  0  0  0  0  0
   17.1160   35.4680  125.7930 C   0  0  0  0  0  0  0  0  0  0  0  0
   18.1420   34.6140  126.0570 C   0  0  0  0  0  0  0  0  0  0  0  0
   19.5810   34.8690  125.6370 C   0  0  0  0  0  0  0  0  0  0  0  0
   19.9630   36.6080  125.2510 S   0  0  0  0  0  0  0  0  0  0  0  0
   18.4970   36.7750  124.1930 C   0  0  2  0  0  0  0  0  0  0  0  0
   18.6740   39.3640  124.5020 N   0  0  0  0  0  0  0  0  0  0  0  0
   17.4970   40.9460  123.3370 O   0  0  0  0  0  0  0  0  0  0  0  0
   18.4100   40.6560  124.1080 C   0  0  0  0  0  0  0  0  0  0  0  0
   19.4470   39.1840  125.1340 H   0  0  0  0  0  0  0  0  0  0  0  0
   19.3360   41.6980  124.7050 C   0  0  0  0  0  0  0  0  0  0  0  0
   19.4730   41.4670  126.1790 C   0  0  0  0  0  0  0  0  0  0  0  0
   20.5970   41.0700  126.8790 C   0  0  0  0  0  0  0  0  0  0  0  0
   18.1300   41.6870  127.2190 S   0  0  0  0  0  0  0  0  0  0  0  0
   20.3510   40.9560  128.2760 C   0  0  0  0  0  0  0  0  0  0  0  0
   19.0480   41.2650  128.5970 C   0  0  0  0  0  0  0  0  0  0  0  0
   15.6700   35.2280  126.3690 C   0  0  0  0  0  0  0  0  0  0  0  0
   15.5470   35.4770  127.6090 O   0  0  0  0  0  0  0  0  0  0  0  0
   14.8110   34.8620  125.5170 O   0  0  0  0  0  0  0  0  0  0  0  0
   17.9730   33.3220  126.8500 C   0  0  0  0  0  0  0  0  0  0  0  0
   19.0090   31.9630  126.1590 S   0  0  0  0  0  0  0  0  0  0  0  0
   19.0580   30.9830  127.5990 C   0  0  2  0  0  0  0  0  0  0  0  0
   18.3270   31.2730  128.7210 N   0  0  0  0  0  0  0  0  0  0  0  0
   20.0200   30.0770  127.7670 N   0  0  0  0  0  0  0  0  0  0  0  0
   19.0330   30.6890  129.6650 C   0  0  0  0  0  0  0  0  0  0  0  0
   20.1140   30.0730  129.1080 N   0  0  0  0  0  0  0  0  0  0  0  0
   20.9990   29.8220  129.5490 H   0  0  0  0  0  0  0  0  0  0  0  0
  1  9  1  0  0  0  0
  1 10  1  1  0  0  0
  1  2  1  0  0  0  0
  2  4  1  0  0  0  0
  2  3  2  0  0  0  0
  4  5  1  0  0  0  0
  5  6  2  0  0  0  0
  5 20  1  0  0  0  0
  6 23  1  0  0  0  0
  7  6  1  0  0  0  0
  8  7  1  0  0  0  0
  9  4  1  0  0  0  0
  9  8  1  1  0  0  0
 10 13  1  0  0  0  0
 11 12  2  0  0  0  0
 12 10  1  0  0  0  0
 12 14  1  0  0  0  0
 14 15  1  0  0  0  0
 15 16  2  0  0  0  0
 15 17  1  0  0  0  0
 16 18  1  0  0  0  0
 17 19  1  0  0  0  0
 18 19  2  0  0  0  0
 20 21  1  0  0  0  0
 22 20  2  0  0  0  0
 24 23  1  0  0  0  0
 25 24  1  1  0  0  0
 25 27  1  0  0  0  0
 25 26  1  0  0  0  0
 26 28  1  0  0  0  0
 27 29  1  0  0  0  0
 29 30  1  0  0  0  0
 29 28  1  0  0  0  0
M  END
>  <minimizedAffinity>
-8.36527729

>  <CNNscore>
0.749840856

>  <CNNaffinity>
6.64626455

$$$$

 OpenBabel08282605353D

 30 33  0  0  1  0  0  0  0  0999 V2000
   17.2200   36.8810  125.4020 C   0  0  2  0  0  0  0  0  0  0  0  0
   15.8610   36.5680  126.1070 C   0  0  0  0  0  0  0  0  0  0  0  0
   15.5240   35.8220  126.9960 O   0  0  0  0  0  0  0  0  0  0  0  0
   15.2230   37.3770  125.2400 N   0  0  0  0  0  0  0  0  0  0  0  0
   13.9390   37.7400  124.9530 C   0  0  0  0  0  0  0  0  0  0  0  0
   13.6670   38.3980  123.7930 C   0  0  0  0  0  0  0  0  0  0  0  0
   14.7040   38.6730  122.7160 C   0  0  0  0  0  0  0  0  0  0  0  0
   16.1830   37.6120  122.7970 S   0  0  0  0  0  0  0  0  0  0  0  0
   16.3910   37.9060  124.5770 C   0  0  2  0  0  0  0  0  0  0  0  0
   17.8320   35.7290  124.6810 N   0  0  0  0  0  0  0  0  0  0  0  0
   19.7510   35.7100  125.9320 O   0  0  0  0  0  0  0  0  0  0  0  0
   19.0950   35.2760  124.9870 C   0  0  0  0  0  0  0  0  0  0  0  0
   17.3430   35.3400  123.8820 H   0  0  0  0  0  0  0  0  0  0  0  0
   19.6150   34.1890  124.0650 C   0  0  0  0  0  0  0  0  0  0  0  0
   20.0920   33.0230  124.8760 C   0  0  0  0  0  0  0  0  0  0  0  0
   19.4800   32.4350  125.9660 C   0  0  0  0  0  0  0  0  0  0  0  0
   21.5730   32.2520  124.4940 S   0  0  0  0  0  0  0  0  0  0  0  0
   20.2310   31.3410  126.4830 C   0  0  0  0  0  0  0  0  0  0  0  0
   21.3920   31.1320  125.7730 C   0  0  0  0  0  0  0  0  0  0  0  0
   12.8040   37.3570  125.9750 C   0  0  0  0  0  0  0  0  0  0  0  0
   12.3210   36.1930  125.8160 O   0  0  0  0  0  0  0  0  0  0  0  0
   12.5500   38.2380  126.8450 O   0  0  0  0  0  0  0  0  0  0  0  0
   12.2740   38.8950  123.4200 C   0  0  0  0  0  0  0  0  0  0  0  0
   12.3530   40.3990  122.3580 S   0  0  0  0  0  0  0  0  0  0  0  0
   11.0250   41.2490  123.0990 C   0  0  2  0  0  0  0  0  0  0  0  0
   10.2410   42.1430  122.4180 N   0  0  0  0  0  0  0  0  0  0  0  0
   10.8970   41.2780  124.4250 N   0  0  0  0  0  0  0  0  0  0  0  0
    9.7930   42.9090  123.3900 C   0  0  0  0  0  0  0  0  0  0  0  0
   10.2820   42.4630  124.5810 N   0  0  0  0  0  0  0  0  0  0  0  0
   10.4040   42.9820  125.4510 H   0  0  0  0  0  0  0  0  0  0  0  0
  1 10  1  6  0  0  0
  1  2  1  0  0  0  0
  2  3  2  0  0  0  0
  4  2  1  0  0  0  0
  5  4  1  0  0  0  0
  5 20  1  0  0  0  0
  6  5  2  0  0  0  0
  7  8  1  0  0  0  0
  7  6  1  0  0  0  0
  9  8  1  6  0  0  0
  9  4  1  0  0  0  0
  9  1  1  0  0  0  0
 10 12  1  0  0  0  0
 12 11  2  0  0  0  0
 13 10  1  0  0  0  0
 14 15  1  0  0  0  0
 14 12  1  0  0  0  0
 15 16  2  0  0  0  0
 16 18  1  0  0  0  0
 17 15  1  0  0  0  0
 17 19  1  0  0  0  0
 19 18  2  0  0  0  0
 20 22  1  0  0  0  0
 21 20  2  0  0  0  0
 23  6  1  0  0  0  0
 24 23  1  0  0  0  0
 25 24  1  1  0  0  0
 25 27  1  0  0  0  0
 26 25  1  0  0  0  0
 26 28  1  0  0  0  0
 27 29  1  0  0  0  0
 28 29  1  0  0  0  0
 29 30  1  0  0  0  0
M  END
>  <minimizedAffinity>
-7.12131596

>  <CNNscore>
0.639609814

>  <CNNaffinity>
5.93869591

$$$$

 OpenBabel08282605353D

 30 33  0  0  1  0  0  0  0  0999 V2000
   17.2110   36.1750  126.1830 C   0  0  2  0  0  0  0  0  0  0  0  0
   15.7710   36.0540  126.7820 C   0  0  0  0  0  0  0  0  0  0  0  0
   15.2950   35.4610  127.7200 O   0  0  0  0  0  0  0  0  0  0  0  0
   15.2840   36.7810  125.7580 N   0  0  0  0  0  0  0  0  0  0  0  0
   14.0660   37.1880  125.2980 C   0  0  0  0  0  0  0  0  0  0  0  0
   13.9550   37.7010  124.0420 C   0  0  0  0  0  0  0  0  0  0  0  0
   15.1060   37.7550  123.0490 C   0  0  0  0  0  0  0  0  0  0  0  0
   16.4800   36.6160  123.4140 S   0  0  0  0  0  0  0  0  0  0  0  0
   16.5460   37.1330  125.1540 C   0  0  2  0  0  0  0  0  0  0  0  0
   17.7900   34.8970  125.6820 N   0  0  0  0  0  0  0  0  0  0  0  0
   19.2650   34.6540  127.4170 O   0  0  0  0  0  0  0  0  0  0  0  0
   18.8270   34.2700  126.3350 C   0  0  0  0  0  0  0  0  0  0  0  0
   17.4770   34.5400  124.7860 H   0  0  0  0  0  0  0  0  0  0  0  0
   19.3840   33.0580  125.6130 C   0  0  0  0  0  0  0  0  0  0  0  0
   19.0950   31.8200  126.4050 C   0  0  0  0  0  0  0  0  0  0  0  0
   18.0000   30.9820  126.3090 C   0  0  0  0  0  0  0  0  0  0  0  0
   20.1870   31.2900  127.6130 S   0  0  0  0  0  0  0  0  0  0  0  0
   18.0670   29.8960  127.2270 C   0  0  0  0  0  0  0  0  0  0  0  0
   19.2080   29.9420  127.9970 C   0  0  0  0  0  0  0  0  0  0  0  0
   12.8140   37.0260  126.2390 C   0  0  0  0  0  0  0  0  0  0  0  0
   12.2400   35.8950  126.1660 O   0  0  0  0  0  0  0  0  0  0  0  0
   12.5680   38.0240  126.9760 O   0  0  0  0  0  0  0  0  0  0  0  0
   12.6470   38.2370  123.4690 C   0  0  0  0  0  0  0  0  0  0  0  0
   12.4070   40.0180  123.8790 S   0  0  0  0  0  0  0  0  0  0  0  0
   12.6230   40.6360  122.2650 C   0  0  2  0  0  0  0  0  0  0  0  0
   13.8560   40.8950  121.7270 N   0  0  0  0  0  0  0  0  0  0  0  0
   11.5920   41.1490  121.5950 N   0  0  0  0  0  0  0  0  0  0  0  0
   13.5720   41.8050  120.8190 C   0  0  0  0  0  0  0  0  0  0  0  0
   12.2300   42.0460  120.8220 N   0  0  0  0  0  0  0  0  0  0  0  0
   11.7340   42.8770  120.5020 H   0  0  0  0  0  0  0  0  0  0  0  0
  1 10  1  6  0  0  0
  1  2  1  0  0  0  0
  2  3  2  0  0  0  0
  4  2  1  0  0  0  0
  5  4  1  0  0  0  0
  5 20  1  0  0  0  0
  6  5  2  0  0  0  0
  7  8  1  0  0  0  0
  7  6  1  0  0  0  0
  9  8  1  6  0  0  0
  9  4  1  0  0  0  0
  9  1  1  0  0  0  0
 10 12  1  0  0  0  0
 12 11  2  0  0  0  0
 13 10  1  0  0  0  0
 14 12  1  0  0  0  0
 14 15  1  0  0  0  0
 15 17  1  0  0  0  0
 16 15  2  0  0  0  0
 16 18  1  0  0  0  0
 17 19  1  0  0  0  0
 18 19  2  0  0  0  0
 20 22  1  0  0  0  0
 21 20  2  0  0  0  0
 23 24  1  0  0  0  0
 23  6  1  0  0  0  0
 25 24  1  1  0  0  0
 26 25  1  0  0  0  0
 27 25  1  0  0  0  0
 28 29  1  0  0  0  0
 28 26  1  0  0  0  0
 29 27  1  0  0  0  0
 30 29  1  0  0  0  0
M  END
>  <minimizedAffinity>
-7.62971878

>  <CNNscore>
0.629870534

>  <CNNaffinity>
6.11098051

$$$$

 OpenBabel08282605353D

 30 33  0  0  1  0  0  0  0  0999 V2000
   16.7770   38.5000  123.4190 C   0  0  2  0  0  0  0  0  0  0  0  0
   15.6810   37.9520  124.3890 C   0  0  0  0  0  0  0  0  0  0  0  0
   14.6020   38.3540  124.7570 O   0  0  0  0  0  0  0  0  0  0  0  0
   16.4870   36.9260  124.7220 N   0  0  0  0  0  0  0  0  0  0  0  0
   16.4820   35.8800  125.5980 C   0  0  0  0  0  0  0  0  0  0  0  0
   17.6320   35.1910  125.8350 C   0  0  0  0  0  0  0  0  0  0  0  0
   18.9830   35.5830  125.2570 C   0  0  0  0  0  0  0  0  0  0  0  0
   19.0950   37.3100  124.6870 S   0  0  0  0  0  0  0  0  0  0  0  0
   17.5350   37.1860  123.7650 C   0  0  2  0  0  0  0  0  0  0  0  0
   17.3890   39.7940  123.8310 N   0  0  0  0  0  0  0  0  0  0  0  0
   15.7560   41.0950  122.8890 O   0  0  0  0  0  0  0  0  0  0  0  0
   16.8350   41.0010  123.4710 C   0  0  0  0  0  0  0  0  0  0  0  0
   18.2880   39.7790  124.3020 H   0  0  0  0  0  0  0  0  0  0  0  0
   17.6610   42.2140  123.8560 C   0  0  0  0  0  0  0  0  0  0  0  0
   18.0670   42.1130  125.2950 C   0  0  0  0  0  0  0  0  0  0  0  0
   17.2700   42.2390  126.4170 C   0  0  0  0  0  0  0  0  0  0  0  0
   19.7000   41.8140  125.7150 S   0  0  0  0  0  0  0  0  0  0  0  0
   18.0070   42.0790  127.6240 C   0  0  0  0  0  0  0  0  0  0  0  0
   19.3420   41.8410  127.3860 C   0  0  0  0  0  0  0  0  0  0  0  0
   15.1340   35.5180  126.3290 C   0  0  0  0  0  0  0  0  0  0  0  0
   15.0910   35.8560  127.5540 O   0  0  0  0  0  0  0  0  0  0  0  0
   14.2570   34.9800  125.5960 O   0  0  0  0  0  0  0  0  0  0  0  0
   17.7050   33.9730  126.7490 C   0  0  0  0  0  0  0  0  0  0  0  0
   19.0400   32.8140  126.2290 S   0  0  0  0  0  0  0  0  0  0  0  0
   19.0250   31.8200  127.6590 C   0  0  2  0  0  0  0  0  0  0  0  0
   20.1100   31.6900  128.4850 N   0  0  0  0  0  0  0  0  0  0  0  0
   18.0550   30.9270  127.8500 N   0  0  0  0  0  0  0  0  0  0  0  0
   19.8880   30.5190  129.0440 C   0  0  0  0  0  0  0  0  0  0  0  0
   18.7160   30.0060  128.5740 N   0  0  0  0  0  0  0  0  0  0  0  0
   18.4190   29.0310  128.5390 H   0  0  0  0  0  0  0  0  0  0  0  0
  1  9  1  0  0  0  0
  1 10  1  1  0  0  0
  1  2  1  0  0  0  0
  2  4  1  0  0  0  0
  2  3  2  0  0  0  0
  4  5  1  0  0  0  0
  5  6  2  0  0  0  0
  5 20  1  0  0  0  0
  6 23  1  0  0  0  0
  7  6  1  0  0  0  0
  8  7  1  0  0  0  0
  9  8  1  1  0  0  0
  9  4  1  0  0  0  0
 10 13  1  0  0  0  0
 11 12  2  0  0  0  0
 12 10  1  0  0  0  0
 12 14  1  0  0  0  0
 14 15  1  0  0  0  0
 15 17  1  0  0  0  0
 15 16  2  0  0  0  0
 16 18  1  0  0  0  0
 17 19  1  0  0  0  0
 19 18  2  0  0  0  0
 20 21  1  0  0  0  0
 22 20  2  0  0  0  0
 24 23  1  0  0  0  0
 25 24  1  6  0  0  0
 25 27  1  0  0  0  0
 25 26  1  0  0  0  0
 26 28  1  0  0  0  0
 27 29  1  0  0  0  0
 29 28  1  0  0  0  0
 30 29  1  0  0  0  0
M  END
>  <minimizedAffinity>
-7.83028555

>  <CNNscore>
0.509229541

>  <CNNaffinity>
6.30012083

$$$$

 OpenBabel08282605353D

 30 33  0  0  1  0  0  0  0  0999 V2000
   16.7350   39.1180  124.3610 C   0  0  2  0  0  0  0  0  0  0  0  0
   15.9470   38.0470  125.1840 C   0  0  0  0  0  0  0  0  0  0  0  0
   14.8530   38.0140  125.6960 O   0  0  0  0  0  0  0  0  0  0  0  0
   17.0290   37.2460  125.1800 N   0  0  0  0  0  0  0  0  0  0  0  0
   17.4060   36.0540  125.7260 C   0  0  0  0  0  0  0  0  0  0  0  0
   18.7170   35.6870  125.7100 C   0  0  0  0  0  0  0  0  0  0  0  0
   19.8370   36.5850  125.2090 C   0  0  0  0  0  0  0  0  0  0  0  0
   19.4190   38.3570  125.1440 S   0  0  0  0  0  0  0  0  0  0  0  0
   17.8490   38.0340  124.2910 C   0  0  2  0  0  0  0  0  0  0  0  0
   17.0280   40.3810  125.0950 N   0  0  0  0  0  0  0  0  0  0  0  0
   17.6520   41.5540  123.2290 O   0  0  0  0  0  0  0  0  0  0  0  0
   17.5230   41.4920  124.4500 C   0  0  0  0  0  0  0  0  0  0  0  0
   16.9540   40.3840  126.1070 H   0  0  0  0  0  0  0  0  0  0  0  0
   17.8950   42.6400  125.3690 C   0  0  0  0  0  0  0  0  0  0  0  0
   19.0910   42.2650  126.1890 C   0  0  0  0  0  0  0  0  0  0  0  0
   20.4100   42.1860  125.7870 C   0  0  0  0  0  0  0  0  0  0  0  0
   18.9130   41.8570  127.8430 S   0  0  0  0  0  0  0  0  0  0  0  0
   21.2770   41.7970  126.8470 C   0  0  0  0  0  0  0  0  0  0  0  0
   20.5910   41.5870  128.0230 C   0  0  0  0  0  0  0  0  0  0  0  0
   16.3000   35.1450  126.3820 C   0  0  0  0  0  0  0  0  0  0  0  0
   15.4380   34.6900  125.5670 O   0  0  0  0  0  0  0  0  0  0  0  0
   16.4370   34.9500  127.6240 O   0  0  0  0  0  0  0  0  0  0  0  0
   19.2180   34.3480  126.2400 C   0  0  0  0  0  0  0  0  0  0  0  0
   19.7540   33.2350  124.8720 S   0  0  0  0  0  0  0  0  0  0  0  0
   19.4220   31.7300  125.6830 C   0  0  2  0  0  0  0  0  0  0  0  0
   18.1660   31.1870  125.7570 N   0  0  0  0  0  0  0  0  0  0  0  0
   20.3230   31.1920  126.5040 N   0  0  0  0  0  0  0  0  0  0  0  0
   18.2540   30.4450  126.8400 C   0  0  0  0  0  0  0  0  0  0  0  0
   19.5120   30.5410  127.3570 N   0  0  0  0  0  0  0  0  0  0  0  0
   19.8190   30.3760  128.3150 H   0  0  0  0  0  0  0  0  0  0  0  0
  1 10  1  1  0  0  0
  1  2  1  0  0  0  0
  2  3  2  0  0  0  0
  4  2  1  0  0  0  0
  4  5  1  0  0  0  0
  5 20  1  0  0  0  0
  6  5  2  0  0  0  0
  6 23  1  0  0  0  0
  7  6  1  0  0  0  0
  8  7  1  0  0  0  0
  9  1  1  0  0  0  0
  9  8  1  1  0  0  0
  9  4  1  0  0  0  0
 10 13  1  0  0  0  0
 11 12  2  0  0  0  0
 12 10  1  0  0  0  0
 12 14  1  0  0  0  0
 14 15  1  0  0  0  0
 15 17  1  0  0  0  0
 16 15  2  0  0  0  0
 16 18  1  0  0  0  0
 17 19  1  0  0  0  0
 18 19  2  0  0  0  0
 20 22  1  0  0  0  0
 21 20  2  0  0  0  0
 24 23  1  0  0  0  0
 25 24  1  1  0  0  0
 25 26  1  0  0  0  0
 25 27  1  0  0  0  0
 26 28  1  0  0  0  0
 27 29  1  0  0  0  0
 28 29  1  0  0  0  0
 29 30  1  0  0  0  0
M  END
>  <minimizedAffinity>
-7.84370232

>  <CNNscore>
0.490131199

>  <CNNaffinity>
6.24098587

$$$$

 OpenBabel08282605353D

 30 33  0  0  1  0  0  0  0  0999 V2000
   16.5840   38.4720  123.3100 C   0  0  2  0  0  0  0  0  0  0  0  0
   15.5220   37.8920  124.2990 C   0  0  0  0  0  0  0  0  0  0  0  0
   14.4230   38.2430  124.6580 O   0  0  0  0  0  0  0  0  0  0  0  0
   16.3860   36.9250  124.6610 N   0  0  0  0  0  0  0  0  0  0  0  0
   16.4420   35.9070  125.5680 C   0  0  0  0  0  0  0  0  0  0  0  0
   17.6290   35.2920  125.8220 C   0  0  0  0  0  0  0  0  0  0  0  0
   18.9550   35.7430  125.2290 C   0  0  0  0  0  0  0  0  0  0  0  0
   18.9680   37.4550  124.6070 S   0  0  0  0  0  0  0  0  0  0  0  0
   17.4170   37.2150  123.6930 C   0  0  2  0  0  0  0  0  0  0  0  0
   17.1220   39.8110  123.6810 N   0  0  0  0  0  0  0  0  0  0  0  0
   15.4090   40.9870  122.7160 O   0  0  0  0  0  0  0  0  0  0  0  0
   16.4960   40.9730  123.2930 C   0  0  0  0  0  0  0  0  0  0  0  0
   18.0230   39.8620  124.1450 H   0  0  0  0  0  0  0  0  0  0  0  0
   17.2520   42.2430  123.6370 C   0  0  0  0  0  0  0  0  0  0  0  0
   16.3190   43.2320  124.2650 C   0  0  0  0  0  0  0  0  0  0  0  0
   15.9370   43.3220  125.5900 C   0  0  0  0  0  0  0  0  0  0  0  0
   15.5710   44.4420  123.3120 S   0  0  0  0  0  0  0  0  0  0  0  0
   15.0320   44.3970  125.8200 C   0  0  0  0  0  0  0  0  0  0  0  0
   14.7500   45.0900  124.6640 C   0  0  0  0  0  0  0  0  0  0  0  0
   15.1180   35.4910  126.3140 C   0  0  0  0  0  0  0  0  0  0  0  0
   15.0700   35.8360  127.5360 O   0  0  0  0  0  0  0  0  0  0  0  0
   14.2600   34.9080  125.5920 O   0  0  0  0  0  0  0  0  0  0  0  0
   17.7730   34.1080  126.7720 C   0  0  0  0  0  0  0  0  0  0  0  0
   19.0660   32.9280  126.1940 S   0  0  0  0  0  0  0  0  0  0  0  0
   19.0530   31.8990  127.5990 C   0  0  2  0  0  0  0  0  0  0  0  0
   20.1690   31.6640  128.3590 N   0  0  0  0  0  0  0  0  0  0  0  0
   18.0300   31.0750  127.8240 N   0  0  0  0  0  0  0  0  0  0  0  0
   19.8890   30.4980  128.9020 C   0  0  0  0  0  0  0  0  0  0  0  0
   18.6580   30.0880  128.4870 N   0  0  0  0  0  0  0  0  0  0  0  0
   18.2850   29.1390  128.4460 H   0  0  0  0  0  0  0  0  0  0  0  0
  1 10  1  1  0  0  0
  1  9  1  0  0  0  0
  1  2  1  0  0  0  0
  2  3  2  0  0  0  0
  2  4  1  0  0  0  0
  4  5  1  0  0  0  0
  5  6  2  0  0  0  0
  5 20  1  0  0  0  0
  6 23  1  0  0  0  0
  7  6  1  0  0  0  0
  8  7  1  0  0  0  0
  9  8  1  1  0  0  0
  9  4  1  0  0  0  0
 10 13  1  0  0  0  0
 11 12  2  0  0  0  0
 12 14  1  0  0  0  0
 12 10  1  0  0  0  0
 14 15  1  0  0  0  0
 15 16  2  0  0  0  0
 16 18  1  0  0  0  0
 17 15  1  0  0  0  0
 17 19  1  0  0  0  0
 19 18  2  0  0  0  0
 20 21  1  0  0  0  0
 22 20  2  0  0  0  0
 24 23  1  0  0  0  0
 25 24  1  6  0  0  0
 25 27  1  0  0  0  0
 25 26  1  0  0  0  0
 26 28  1  0  0  0  0
 27 29  1  0  0  0  0
 29 28  1  0  0  0  0
 30 29  1  0  0  0  0
M  END
>  <minimizedAffinity>
-7.43411636

>  <CNNscore>
0.457398474

>  <CNNaffinity>
6.16526651

$$$$

 OpenBabel08282605353D

 30 33  0  0  1  0  0  0  0  0999 V2000
   14.2610   38.4310  122.5290 C   0  0  2  0  0  0  0  0  0  0  0  0
   14.0770   37.5220  123.7870 C   0  0  0  0  0  0  0  0  0  0  0  0
   13.1220   37.1530  124.4290 O   0  0  0  0  0  0  0  0  0  0  0  0
   15.4140   37.4260  123.9150 N   0  0  0  0  0  0  0  0  0  0  0  0
   16.3090   36.8870  124.7930 C   0  0  0  0  0  0  0  0  0  0  0  0
   17.6220   37.2390  124.7200 C   0  0  0  0  0  0  0  0  0  0  0  0
   18.1590   38.3000  123.7720 C   0  0  0  0  0  0  0  0  0  0  0  0
   16.9030   39.4560  123.1340 S   0  0  0  0  0  0  0  0  0  0  0  0
   15.7730   38.1050  122.6930 C   0  0  2  0  0  0  0  0  0  0  0  0
   13.8240   39.8450  122.7070 N   0  0  0  0  0  0  0  0  0  0  0  0
   11.8570   39.5900  121.5620 O   0  0  0  0  0  0  0  0  0  0  0  0
   12.6590   40.3160  122.1460 C   0  0  0  0  0  0  0  0  0  0  0  0
   14.4530   40.4930  123.1690 H   0  0  0  0  0  0  0  0  0  0  0  0
   12.4390   41.8070  122.3110 C   0  0  0  0  0  0  0  0  0  0  0  0
   11.0480   42.0610  122.8050 C   0  0  0  0  0  0  0  0  0  0  0  0
   10.4940   41.6990  124.0180 C   0  0  0  0  0  0  0  0  0  0  0  0
    9.9170   42.8910  121.8210 S   0  0  0  0  0  0  0  0  0  0  0  0
    9.1370   42.1130  124.1390 C   0  0  0  0  0  0  0  0  0  0  0  0
    8.6990   42.7750  123.0140 C   0  0  0  0  0  0  0  0  0  0  0  0
   15.7800   35.8840  125.8850 C   0  0  0  0  0  0  0  0  0  0  0  0
   15.9470   34.6570  125.6010 O   0  0  0  0  0  0  0  0  0  0  0  0
   15.2980   36.4280  126.9200 O   0  0  0  0  0  0  0  0  0  0  0  0
   18.6990   36.6410  125.6180 C   0  0  0  0  0  0  0  0  0  0  0  0
   19.5560   35.2280  124.8010 S   0  0  0  0  0  0  0  0  0  0  0  0
   19.2200   34.0400  126.0300 C   0  0  2  0  0  0  0  0  0  0  0  0
   18.9480   32.7280  125.7420 N   0  0  0  0  0  0  0  0  0  0  0  0
   18.9350   34.4190  127.2760 N   0  0  0  0  0  0  0  0  0  0  0  0
   18.2470   32.3580  126.7930 C   0  0  0  0  0  0  0  0  0  0  0  0
   18.1370   33.4060  127.6580 N   0  0  0  0  0  0  0  0  0  0  0  0
   17.4270   33.5680  128.3720 H   0  0  0  0  0  0  0  0  0  0  0  0
  1  9  1  0  0  0  0
  1 10  1  1  0  0  0
  1  2  1  0  0  0  0
  2  4  1  0  0  0  0
  2  3  2  0  0  0  0
  4  5  1  0  0  0  0
  5 20  1  0  0  0  0
  6  5  2  0  0  0  0
  6 23  1  0  0  0  0
  7  6  1  0  0  0  0
  8  7  1  0  0  0  0
  9  8  1  1  0  0  0
  9  4  1  0  0  0  0
 10 13  1  0  0  0  0
 11 12  2  0  0  0  0
 12 14  1  0  0  0  0
 12 10  1  0  0  0  0
 14 15  1  0  0  0  0
 15 16  2  0  0  0  0
 16 18  1  0  0  0  0
 17 15  1  0  0  0  0
 17 19  1  0  0  0  0
 19 18  2  0  0  0  0
 20 22  1  0  0  0  0
 21 20  2  0  0  0  0
 24 23  1  0  0  0  0
 25 24  1  6  0  0  0
 25 27  1  0  0  0  0
 26 25  1  0  0  0  0
 26 28  1  0  0  0  0
 27 29  1  0  0  0  0
 28 29  1  0  0  0  0
 29 30  1  0  0  0  0
M  END
>  <minimizedAffinity>
-7.81821918

>  <CNNscore>
0.434578985

>  <CNNaffinity>
6.0058732

$$$$

 OpenBabel08282605353D

 30 33  0  0  1  0  0  0  0  0999 V2000
   19.3180   36.7810  125.0620 C   0  0  2  0  0  0  0  0  0  0  0  0
   19.3550   38.2710  125.5340 C   0  0  0  0  0  0  0  0  0  0  0  0
   19.9460   38.8660  126.4030 O   0  0  0  0  0  0  0  0  0  0  0  0
   18.3800   38.5740  124.6550 N   0  0  0  0  0  0  0  0  0  0  0  0
   17.6160   39.6560  124.3270 C   0  0  0  0  0  0  0  0  0  0  0  0
   16.5160   39.4930  123.5420 C   0  0  0  0  0  0  0  0  0  0  0  0
   16.0040   38.1380  123.0790 C   0  0  0  0  0  0  0  0  0  0  0  0
   16.5990   36.7240  124.0620 S   0  0  0  0  0  0  0  0  0  0  0  0
   18.3200   37.2970  123.9860 C   0  0  2  0  0  0  0  0  0  0  0  0
   18.8160   35.8140  126.0790 N   0  0  0  0  0  0  0  0  0  0  0  0
   18.8950   33.9990  124.6840 O   0  0  0  0  0  0  0  0  0  0  0  0
   18.5950   34.4910  125.7700 C   0  0  0  0  0  0  0  0  0  0  0  0
   18.5390   36.1660  126.9900 H   0  0  0  0  0  0  0  0  0  0  0  0
   17.9540   33.6830  126.8830 C   0  0  0  0  0  0  0  0  0  0  0  0
   18.7420   32.4300  127.1150 C   0  0  0  0  0  0  0  0  0  0  0  0
   19.9600   32.0740  126.5670 C   0  0  0  0  0  0  0  0  0  0  0  0
   18.1470   31.2160  128.1660 S   0  0  0  0  0  0  0  0  0  0  0  0
   20.4070   30.8010  127.0230 C   0  0  0  0  0  0  0  0  0  0  0  0
   19.5150   30.2260  127.9000 C   0  0  0  0  0  0  0  0  0  0  0  0
   18.0260   41.0660  124.8960 C   0  0  0  0  0  0  0  0  0  0  0  0
   17.4680   41.3750  125.9940 O   0  0  0  0  0  0  0  0  0  0  0  0
   18.8880   41.6870  124.2100 O   0  0  0  0  0  0  0  0  0  0  0  0
   15.6420   40.6520  123.0760 C   0  0  0  0  0  0  0  0  0  0  0  0
   13.8910   40.4380  123.6110 S   0  0  0  0  0  0  0  0  0  0  0  0
   13.1500   41.0370  122.1530 C   0  0  2  0  0  0  0  0  0  0  0  0
   13.6900   42.0510  121.4070 N   0  0  0  0  0  0  0  0  0  0  0  0
   11.8870   40.7270  121.8610 N   0  0  0  0  0  0  0  0  0  0  0  0
   12.6290   42.5340  120.7960 C   0  0  0  0  0  0  0  0  0  0  0  0
   11.5290   41.8170  121.1600 N   0  0  0  0  0  0  0  0  0  0  0  0
   10.5500   42.1030  121.1420 H   0  0  0  0  0  0  0  0  0  0  0  0
  1  2  1  0  0  0  0
  1 10  1  1  0  0  0
  2  3  2  0  0  0  0
  4  2  1  0  0  0  0
  5  4  1  0  0  0  0
  5 20  1  0  0  0  0
  6  5  2  0  0  0  0
  7  6  1  0  0  0  0
  7  8  1  0  0  0  0
  9  8  1  1  0  0  0
  9  4  1  0  0  0  0
  9  1  1  0  0  0  0
 10 13  1  0  0  0  0
 11 12  2  0  0  0  0
 12 10  1  0  0  0  0
 12 14  1  0  0  0  0
 14 15  1  0  0  0  0
 15 17  1  0  0  0  0
 16 18  1  0  0  0  0
 16 15  2  0  0  0  0
 18 19  2  0  0  0  0
 19 17  1  0  0  0  0
 20 21  1  0  0  0  0
 22 20  2  0  0  0  0
 23  6  1  0  0  0  0
 23 24  1  0  0  0  0
 25 24  1  1  0  0  0
 26 25  1  0  0  0  0
 27 25  1  0  0  0  0
 28 29  1  0  0  0  0
 28 26  1  0  0  0  0
 29 27  1  0  0  0  0
 30 29  1  0  0  0  0
M  END
>  <minimizedAffinity>
-7.30792618

>  <CNNscore>
0.349465877

>  <CNNaffinity>
6.13382339

$$$$
