
 OpenBabel08272614583D

 35 38  0  0  1  0  0  0  0  0999 V2000
   18.6290   34.8770  126.0640 C   0  0  0  0  0  0  0  0  0  0  0  0
   19.8270   34.7820  126.3140 O   0  0  0  0  0  0  0  0  0  0  0  0
   17.6940   33.9100  126.1810 O   0  0  0  0  0  0  0  0  0  0  0  0
   17.9400   32.9270  127.2040 C   0  0  0  0  0  0  0  0  0  0  0  0
   18.1520   31.5400  126.5650 C   0  0  0  0  0  0  0  0  0  0  0  0
   19.4100   31.5420  125.6700 C   0  0  0  0  0  0  0  0  0  0  0  0
   20.6820   31.1230  126.3910 C   0  0  0  0  0  0  0  0  0  0  0  0
   18.1330   30.4130  127.6200 C   0  0  0  0  0  0  0  0  0  0  0  0
   17.4350   29.1220  127.2130 C   0  0  0  0  0  0  0  0  0  0  0  0
   18.0220   36.2050  125.6100 C   0  0  2  0  0  0  0  0  0  0  0  0
   16.5470   36.3340  126.0030 C   0  0  0  0  0  0  0  0  0  0  0  0
   18.1820   36.3480  124.0960 N   0  0  0  0  0  4  0  0  0  0  0  0
   15.8000   37.4360  125.2310 C   0  0  1  0  0  0  0  0  0  0  0  0
   16.9410   36.1740  123.3000 C   0  0  0  0  0  0  0  0  0  0  0  0
   16.2600   38.8280  125.6920 C   0  0  0  0  0  0  0  0  0  0  0  0
   15.9220   37.2450  123.6990 C   0  0  2  0  0  0  0  0  0  0  0  0
   15.5500   40.0020  124.9840 C   0  0  2  0  0  0  0  0  0  0  0  0
   16.1910   38.5730  122.9670 C   0  0  0  0  0  0  0  0  0  0  0  0
   15.2800   39.6760  123.4990 C   0  0  0  0  0  0  0  0  0  0  0  0
   18.6460   37.2360  123.8680 H   0  0  0  0  0  0  0  0  0  0  0  0
   18.8490   35.6060  123.8090 H   0  0  0  0  0  0  0  0  0  0  0  0
   16.3570   41.1590  125.3260 O   0  0  0  0  0  0  0  0  0  0  0  0
   17.6870   40.9650  125.5870 C   0  0  0  0  0  0  0  0  0  0  0  0
   18.3670   40.1210  124.7030 C   0  0  0  0  0  0  0  0  0  0  0  0
   18.3280   41.4950  126.7250 C   0  0  0  0  0  0  0  0  0  0  0  0
   19.7230   39.8570  124.8980 C   0  0  0  0  0  0  0  0  0  0  0  0
   19.6980   41.2290  126.8990 C   0  0  0  0  0  0  0  0  0  0  0  0
   20.3890   40.4200  125.9860 C   0  0  0  0  0  0  0  0  0  0  0  0
   20.5890   41.8330  128.2540 Cl  0  0  0  0  0  0  0  0  0  0  0  0
   17.5770   42.2970  127.6790 C   0  0  0  0  0  0  0  0  0  0  0  0
   17.4160   42.0910  128.9730 N   0  0  0  0  0  0  0  0  0  0  0  0
   16.9290   43.4600  127.3670 N   0  0  0  0  0  0  0  0  0  0  0  0
   16.6890   43.1550  129.4480 N   0  0  0  0  0  0  0  0  0  0  0  0
   16.4090   44.0080  128.4740 N   0  0  0  0  0  0  0  0  0  0  0  0
   16.8400   43.9340  126.4760 H   0  0  0  0  0  0  0  0  0  0  0  0
  1  3  1  0  0  0  0
  1  2  2  0  0  0  0
  3  4  1  0  0  0  0
  5  4  1  0  0  0  0
  5  8  1  0  0  0  0
  6  7  1  0  0  0  0
  6  5  1  0  0  0  0
  9  8  1  0  0  0  0
 10 11  1  0  0  0  0
 10  1  1  6  0  0  0
 12 10  1  0  0  0  0
 13 15  1  6  0  0  0
 13 11  1  0  0  0  0
 14 16  1  0  0  0  0
 14 12  1  0  0  0  0
 16 18  1  6  0  0  0
 16 13  1  0  0  0  0
 17 22  1  6  0  0  0
 17 15  1  0  0  0  0
 18 19  1  0  0  0  0
 19 17  1  0  0  0  0
 20 12  1  0  0  0  0
 21 12  1  0  0  0  0
 22 23  1  0  0  0  0
 23 25  1  0  0  0  0
 24 26  1  0  0  0  0
 24 23  2  0  0  0  0
 25 27  2  0  0  0  0
 25 30  1  0  0  0  0
 26 28  2  0  0  0  0
 27 29  1  0  0  0  0
 28 27  1  0  0  0  0
 30 31  2  0  0  0  0
 31 33  1  0  0  0  0
 32 30  1  0  0  0  0
 32 34  1  0  0  0  0
 34 33  2  0  0  0  0
 35 32  1  0  0  0  0
M  END
>  <minimizedAffinity>
-8.51848888

>  <CNNscore>
0.436287284

>  <CNNaffinity>
6.53941393

$$$$

 OpenBabel08272614583D

 35 38  0  0  1  0  0  0  0  0999 V2000
   15.2190   35.7160  126.9640 C   0  0  0  0  0  0  0  0  0  0  0  0
   14.5780   35.4220  127.9680 O   0  0  0  0  0  0  0  0  0  0  0  0
   16.2780   35.0520  126.4510 O   0  0  0  0  0  0  0  0  0  0  0  0
   17.1190   34.3860  127.4100 C   0  0  0  0  0  0  0  0  0  0  0  0
   18.4780   34.0370  126.7700 C   0  0  0  0  0  0  0  0  0  0  0  0
   18.5550   32.5280  126.4530 C   0  0  0  0  0  0  0  0  0  0  0  0
   19.8680   32.0960  125.8170 C   0  0  0  0  0  0  0  0  0  0  0  0
   18.7950   34.9490  125.5650 C   0  0  0  0  0  0  0  0  0  0  0  0
   19.6160   36.1960  125.8630 C   0  0  0  0  0  0  0  0  0  0  0  0
   14.8280   36.9170  126.1040 C   0  0  2  0  0  0  0  0  0  0  0  0
   13.7130   36.5820  125.1080 C   0  0  0  0  0  0  0  0  0  0  0  0
   16.0610   37.4380  125.3640 N   0  0  0  0  0  4  0  0  0  0  0  0
   13.5760   37.6080  123.9700 C   0  0  1  0  0  0  0  0  0  0  0  0
   16.1080   37.1470  123.9090 C   0  0  0  0  0  0  0  0  0  0  0  0
   12.9910   38.9280  124.4990 C   0  0  0  0  0  0  0  0  0  0  0  0
   14.9130   37.8100  123.2150 C   0  0  2  0  0  0  0  0  0  0  0  0
   12.7990   40.0180  123.4210 C   0  0  2  0  0  0  0  0  0  0  0  0
   15.1940   39.2930  122.9160 C   0  0  0  0  0  0  0  0  0  0  0  0
   13.9410   39.9820  122.3830 C   0  0  0  0  0  0  0  0  0  0  0  0
   16.1890   38.4410  125.5440 H   0  0  0  0  0  0  0  0  0  0  0  0
   16.8760   36.9720  125.8070 H   0  0  0  0  0  0  0  0  0  0  0  0
   12.5640   41.2290  124.1860 O   0  0  0  0  0  0  0  0  0  0  0  0
   12.6930   42.4320  123.5470 C   0  0  0  0  0  0  0  0  0  0  0  0
   13.9680   43.0040  123.5700 C   0  0  0  0  0  0  0  0  0  0  0  0
   11.5990   43.1160  122.9780 C   0  0  0  0  0  0  0  0  0  0  0  0
   14.1900   44.2360  122.9530 C   0  0  0  0  0  0  0  0  0  0  0  0
   11.8430   44.3500  122.3490 C   0  0  0  0  0  0  0  0  0  0  0  0
   13.1330   44.9000  122.3340 C   0  0  0  0  0  0  0  0  0  0  0  0
   10.5790   45.2740  121.6120 Cl  0  0  0  0  0  0  0  0  0  0  0  0
   10.2640   42.5410  123.0450 C   0  0  0  0  0  0  0  0  0  0  0  0
    9.3510   42.4810  122.0930 N   0  0  0  0  0  0  0  0  0  0  0  0
    9.7490   41.9130  124.1450 N   0  0  0  0  0  0  0  0  0  0  0  0
    8.2890   41.7850  122.6180 N   0  0  0  0  0  0  0  0  0  0  0  0
    8.5370   41.4150  123.8660 N   0  0  0  0  0  0  0  0  0  0  0  0
   10.1630   41.7610  125.0570 H   0  0  0  0  0  0  0  0  0  0  0  0
  1  2  2  0  0  0  0
  3  1  1  0  0  0  0
  3  4  1  0  0  0  0
  5  4  1  0  0  0  0
  6  5  1  0  0  0  0
  7  6  1  0  0  0  0
  8  9  1  0  0  0  0
  8  5  1  0  0  0  0
 10  1  1  6  0  0  0
 11 10  1  0  0  0  0
 12 20  1  0  0  0  0
 12 21  1  0  0  0  0
 12 10  1  0  0  0  0
 13 15  1  1  0  0  0
 13 11  1  0  0  0  0
 14 12  1  0  0  0  0
 16 18  1  1  0  0  0
 16 14  1  0  0  0  0
 16 13  1  0  0  0  0
 17 22  1  1  0  0  0
 17 15  1  0  0  0  0
 19 18  1  0  0  0  0
 19 17  1  0  0  0  0
 23 24  1  0  0  0  0
 23 22  1  0  0  0  0
 25 30  1  0  0  0  0
 25 23  2  0  0  0  0
 26 24  2  0  0  0  0
 27 25  1  0  0  0  0
 28 27  2  0  0  0  0
 28 26  1  0  0  0  0
 29 27  1  0  0  0  0
 30 32  1  0  0  0  0
 31 33  1  0  0  0  0
 31 30  2  0  0  0  0
 32 35  1  0  0  0  0
 33 34  2  0  0  0  0
 34 32  1  0  0  0  0
M  END
>  <minimizedAffinity>
-7.72721672

>  <CNNscore>
0.39530158

>  <CNNaffinity>
6.22880697

$$$$

 OpenBabel08272614583D

 35 38  0  0  1  0  0  0  0  0999 V2000
   15.3900   35.7360  125.4520 C   0  0  0  0  0  0  0  0  0  0  0  0
   14.2890   35.2730  125.7360 O   0  0  0  0  0  0  0  0  0  0  0  0
   16.5650   35.0720  125.4080 O   0  0  0  0  0  0  0  0  0  0  0  0
   17.1840   34.8180  126.6820 C   0  0  0  0  0  0  0  0  0  0  0  0
   18.5510   34.1330  126.4780 C   0  0  0  0  0  0  0  0  0  0  0  0
   18.4450   32.6190  126.7630 C   0  0  0  0  0  0  0  0  0  0  0  0
   19.6870   32.0240  127.4100 C   0  0  0  0  0  0  0  0  0  0  0  0
   19.1630   34.4720  125.1010 C   0  0  0  0  0  0  0  0  0  0  0  0
   19.7590   35.8660  124.9560 C   0  0  0  0  0  0  0  0  0  0  0  0
   15.5460   37.2000  125.0420 C   0  0  2  0  0  0  0  0  0  0  0  0
   14.4000   38.0750  125.5610 C   0  0  0  0  0  0  0  0  0  0  0  0
   15.6390   37.2970  123.5190 N   0  0  0  0  0  4  0  0  0  0  0  0
   14.2930   39.4340  124.8470 C   0  0  1  0  0  0  0  0  0  0  0  0
   14.4380   37.8370  122.8340 C   0  0  0  0  0  0  0  0  0  0  0  0
   15.4560   40.3530  125.2560 C   0  0  0  0  0  0  0  0  0  0  0  0
   14.1760   39.2690  123.3130 C   0  0  2  0  0  0  0  0  0  0  0  0
   15.4240   41.7520  124.6030 C   0  0  2  0  0  0  0  0  0  0  0  0
   15.0510   40.2810  122.5500 C   0  0  0  0  0  0  0  0  0  0  0  0
   14.9070   41.6770  123.1500 C   0  0  0  0  0  0  0  0  0  0  0  0
   16.4840   37.8130  123.2440 H   0  0  0  0  0  0  0  0  0  0  0  0
   15.7870   36.3270  123.1810 H   0  0  0  0  0  0  0  0  0  0  0  0
   16.7450   42.2920  124.8660 O   0  0  0  0  0  0  0  0  0  0  0  0
   17.7430   41.4210  125.2070 C   0  0  0  0  0  0  0  0  0  0  0  0
   18.2100   40.5920  124.1820 C   0  0  0  0  0  0  0  0  0  0  0  0
   18.2200   41.2830  126.5260 C   0  0  0  0  0  0  0  0  0  0  0  0
   19.2180   39.6640  124.4410 C   0  0  0  0  0  0  0  0  0  0  0  0
   19.2460   40.3520  126.7680 C   0  0  0  0  0  0  0  0  0  0  0  0
   19.7440   39.5540  125.7280 C   0  0  0  0  0  0  0  0  0  0  0  0
   19.9120   40.1030  128.3460 Cl  0  0  0  0  0  0  0  0  0  0  0  0
   17.6560   42.0950  127.5950 C   0  0  0  0  0  0  0  0  0  0  0  0
   17.6650   41.8580  128.8930 N   0  0  0  0  0  0  0  0  0  0  0  0
   17.0400   43.3010  127.4030 N   0  0  0  0  0  0  0  0  0  0  0  0
   17.0740   42.9440  129.4890 N   0  0  0  0  0  0  0  0  0  0  0  0
   16.7110   43.8410  128.5850 N   0  0  0  0  0  0  0  0  0  0  0  0
   16.8570   43.8050  126.5450 H   0  0  0  0  0  0  0  0  0  0  0  0
  1  2  2  0  0  0  0
  3  1  1  0  0  0  0
  3  4  1  0  0  0  0
  5  4  1  0  0  0  0
  5  6  1  0  0  0  0
  6  7  1  0  0  0  0
  8  5  1  0  0  0  0
  9  8  1  0  0  0  0
 10  1  1  6  0  0  0
 10 11  1  0  0  0  0
 12 10  1  0  0  0  0
 13 15  1  6  0  0  0
 13 11  1  0  0  0  0
 14 16  1  0  0  0  0
 14 12  1  0  0  0  0
 16 18  1  6  0  0  0
 16 13  1  0  0  0  0
 17 22  1  6  0  0  0
 17 15  1  0  0  0  0
 18 19  1  0  0  0  0
 19 17  1  0  0  0  0
 20 12  1  0  0  0  0
 21 12  1  0  0  0  0
 22 23  1  0  0  0  0
 23 25  1  0  0  0  0
 24 26  1  0  0  0  0
 24 23  2  0  0  0  0
 25 27  2  0  0  0  0
 25 30  1  0  0  0  0
 26 28  2  0  0  0  0
 27 29  1  0  0  0  0
 28 27  1  0  0  0  0
 30 31  2  0  0  0  0
 31 33  1  0  0  0  0
 32 30  1  0  0  0  0
 32 34  1  0  0  0  0
 34 33  2  0  0  0  0
 35 32  1  0  0  0  0
M  END
>  <minimizedAffinity>
-8.635952

>  <CNNscore>
0.368362039

>  <CNNaffinity>
6.49452543

$$$$

 OpenBabel08272614583D

 35 38  0  0  1  0  0  0  0  0999 V2000
   11.1390   41.3600  124.0550 C   0  0  0  0  0  0  0  0  0  0  0  0
   10.0180   40.8890  123.8910 O   0  0  0  0  0  0  0  0  0  0  0  0
   11.4530   42.6530  124.2880 O   0  0  0  0  0  0  0  0  0  0  0  0
   10.6570   43.6230  123.5830 C   0  0  0  0  0  0  0  0  0  0  0  0
    9.5880   42.9110  122.7290 C   0  0  0  0  0  0  0  0  0  0  0  0
    8.1740   43.3910  123.1210 C   0  0  0  0  0  0  0  0  0  0  0  0
    7.9900   43.6210  124.6130 C   0  0  0  0  0  0  0  0  0  0  0  0
    9.8940   43.0200  121.2190 C   0  0  0  0  0  0  0  0  0  0  0  0
   11.3340   43.3440  120.8470 C   0  0  0  0  0  0  0  0  0  0  0  0
   12.3770   40.4640  124.0620 C   0  0  2  0  0  0  0  0  0  0  0  0
   13.5840   41.1330  123.3960 C   0  0  0  0  0  0  0  0  0  0  0  0
   12.0540   39.1410  123.3660 N   0  0  0  0  0  4  0  0  0  0  0  0
   14.7020   40.1450  123.0160 C   0  0  1  0  0  0  0  0  0  0  0  0
   12.6460   38.9630  122.0170 C   0  0  0  0  0  0  0  0  0  0  0  0
   15.4190   39.6290  124.2740 C   0  0  0  0  0  0  0  0  0  0  0  0
   14.1740   38.9990  122.1190 C   0  0  2  0  0  0  0  0  0  0  0  0
   16.5730   38.6430  123.9910 C   0  0  2  0  0  0  0  0  0  0  0  0
   14.7380   37.6280  122.5350 C   0  0  0  0  0  0  0  0  0  0  0  0
   16.2380   37.7210  122.7980 C   0  0  0  0  0  0  0  0  0  0  0  0
   12.2840   38.3490  123.9780 H   0  0  0  0  0  0  0  0  0  0  0  0
   11.0200   39.1190  123.2650 H   0  0  0  0  0  0  0  0  0  0  0  0
   16.8620   38.0600  125.2880 O   0  0  0  0  0  0  0  0  0  0  0  0
   17.6980   36.9770  125.3390 C   0  0  0  0  0  0  0  0  0  0  0  0
   18.9330   37.1270  124.7030 C   0  0  0  0  0  0  0  0  0  0  0  0
   17.3180   35.7450  125.9070 C   0  0  0  0  0  0  0  0  0  0  0  0
   19.8450   36.0710  124.6940 C   0  0  0  0  0  0  0  0  0  0  0  0
   18.2530   34.6940  125.9010 C   0  0  0  0  0  0  0  0  0  0  0  0
   19.5100   34.8630  125.3020 C   0  0  0  0  0  0  0  0  0  0  0  0
   17.8990   33.1400  126.5760 Cl  0  0  0  0  0  0  0  0  0  0  0  0
   15.9910   35.5850  126.4840 C   0  0  0  0  0  0  0  0  0  0  0  0
   15.6720   35.3040  127.7340 N   0  0  0  0  0  0  0  0  0  0  0  0
   14.8240   35.7510  125.7910 N   0  0  0  0  0  0  0  0  0  0  0  0
   14.3000   35.3290  127.7980 N   0  0  0  0  0  0  0  0  0  0  0  0
   13.7770   35.6260  126.6180 N   0  0  0  0  0  0  0  0  0  0  0  0
   14.6770   35.9780  124.8150 H   0  0  0  0  0  0  0  0  0  0  0  0
  1  3  1  0  0  0  0
  2  1  2  0  0  0  0
  4  3  1  0  0  0  0
  5  6  1  0  0  0  0
  5  4  1  0  0  0  0
  6  7  1  0  0  0  0
  8  5  1  0  0  0  0
  9  8  1  0  0  0  0
 10  1  1  6  0  0  0
 11 10  1  0  0  0  0
 12 20  1  0  0  0  0
 12 10  1  0  0  0  0
 13 11  1  1  0  0  0
 13 15  1  0  0  0  0
 14 12  1  0  0  0  0
 16 14  1  1  0  0  0
 16 18  1  0  0  0  0
 16 13  1  0  0  0  0
 17 15  1  0  0  0  0
 17 22  1  1  0  0  0
 18 19  1  0  0  0  0
 19 17  1  0  0  0  0
 21 12  1  0  0  0  0
 22 23  1  0  0  0  0
 23 25  1  0  0  0  0
 24 23  2  0  0  0  0
 25 30  1  0  0  0  0
 26 24  1  0  0  0  0
 26 28  2  0  0  0  0
 27 25  2  0  0  0  0
 27 29  1  0  0  0  0
 28 27  1  0  0  0  0
 30 31  2  0  0  0  0
 31 33  1  0  0  0  0
 32 30  1  0  0  0  0
 32 34  1  0  0  0  0
 34 33  2  0  0  0  0
 35 32  1  0  0  0  0
M  END
>  <minimizedAffinity>
-7.83958864

>  <CNNscore>
0.36330393

>  <CNNaffinity>
6.05877161

$$$$

 OpenBabel08272614583D

 35 38  0  0  1  0  0  0  0  0999 V2000
   17.5490   34.4820  127.2000 C   0  0  0  0  0  0  0  0  0  0  0  0
   16.8210   34.0430  128.0850 O   0  0  0  0  0  0  0  0  0  0  0  0
   18.6830   33.9220  126.7260 O   0  0  0  0  0  0  0  0  0  0  0  0
   18.6440   32.4940  126.5460 C   0  0  0  0  0  0  0  0  0  0  0  0
   19.6920   31.8180  127.4530 C   0  0  0  0  0  0  0  0  0  0  0  0
   19.0010   31.0440  128.5960 C   0  0  0  0  0  0  0  0  0  0  0  0
   19.9160   30.7230  129.7680 C   0  0  0  0  0  0  0  0  0  0  0  0
   20.6950   30.9720  126.6380 C   0  0  0  0  0  0  0  0  0  0  0  0
   21.1960   31.5900  125.3400 C   0  0  0  0  0  0  0  0  0  0  0  0
   17.1960   35.7700  126.4580 C   0  0  2  0  0  0  0  0  0  0  0  0
   15.9950   35.5930  125.5230 C   0  0  0  0  0  0  0  0  0  0  0  0
   18.4130   36.2560  125.6700 N   0  0  0  0  0  4  0  0  0  0  0  0
   15.8630   36.7100  124.4730 C   0  0  1  0  0  0  0  0  0  0  0  0
   18.3410   36.0740  124.1980 C   0  0  0  0  0  0  0  0  0  0  0  0
   15.4180   38.0250  125.1350 C   0  0  0  0  0  0  0  0  0  0  0  0
   17.1580   36.8710  123.6410 C   0  0  2  0  0  0  0  0  0  0  0  0
   15.2390   39.2040  124.1540 C   0  0  2  0  0  0  0  0  0  0  0  0
   17.5330   38.3490  123.4280 C   0  0  0  0  0  0  0  0  0  0  0  0
   16.3040   39.1650  123.0360 C   0  0  0  0  0  0  0  0  0  0  0  0
   18.6300   37.2300  125.9110 H   0  0  0  0  0  0  0  0  0  0  0  0
   19.2180   35.7000  126.0190 H   0  0  0  0  0  0  0  0  0  0  0  0
   15.1500   40.3670  125.0170 O   0  0  0  0  0  0  0  0  0  0  0  0
   15.2840   41.6050  124.4500 C   0  0  0  0  0  0  0  0  0  0  0  0
   16.3770   42.3620  124.8820 C   0  0  0  0  0  0  0  0  0  0  0  0
   14.3360   42.1430  123.5560 C   0  0  0  0  0  0  0  0  0  0  0  0
   16.5860   43.6410  124.3660 C   0  0  0  0  0  0  0  0  0  0  0  0
   14.5690   43.4290  123.0350 C   0  0  0  0  0  0  0  0  0  0  0  0
   15.6910   44.1670  123.4360 C   0  0  0  0  0  0  0  0  0  0  0  0
   13.4770   44.1860  121.9260 Cl  0  0  0  0  0  0  0  0  0  0  0  0
   13.1580   41.3710  123.1900 C   0  0  0  0  0  0  0  0  0  0  0  0
   12.0610   41.1680  123.8960 N   0  0  0  0  0  0  0  0  0  0  0  0
   12.9890   40.7460  121.9850 N   0  0  0  0  0  0  0  0  0  0  0  0
   11.2150   40.4390  123.0980 N   0  0  0  0  0  0  0  0  0  0  0  0
   11.7680   40.1980  121.9180 N   0  0  0  0  0  0  0  0  0  0  0  0
   13.6150   40.6910  121.1910 H   0  0  0  0  0  0  0  0  0  0  0  0
  1  2  2  0  0  0  0
  3  1  1  0  0  0  0
  4  3  1  0  0  0  0
  4  5  1  0  0  0  0
  5  6  1  0  0  0  0
  6  7  1  0  0  0  0
  8  5  1  0  0  0  0
  9  8  1  0  0  0  0
 10  1  1  6  0  0  0
 11 10  1  0  0  0  0
 12 20  1  0  0  0  0
 12 21  1  0  0  0  0
 12 10  1  0  0  0  0
 13 15  1  1  0  0  0
 13 11  1  0  0  0  0
 14 12  1  0  0  0  0
 16 18  1  1  0  0  0
 16 14  1  0  0  0  0
 16 13  1  0  0  0  0
 17 22  1  1  0  0  0
 17 15  1  0  0  0  0
 19 18  1  0  0  0  0
 19 17  1  0  0  0  0
 23 24  1  0  0  0  0
 23 22  1  0  0  0  0
 25 23  2  0  0  0  0
 26 24  2  0  0  0  0
 27 28  2  0  0  0  0
 27 25  1  0  0  0  0
 28 26  1  0  0  0  0
 29 27  1  0  0  0  0
 30 25  1  0  0  0  0
 30 31  2  0  0  0  0
 32 30  1  0  0  0  0
 33 31  1  0  0  0  0
 34 32  1  0  0  0  0
 34 33  2  0  0  0  0
 35 32  1  0  0  0  0
M  END
>  <minimizedAffinity>
-7.92895651

>  <CNNscore>
0.326637566

>  <CNNaffinity>
6.30997849

$$$$

 OpenBabel08272614583D

 35 38  0  0  1  0  0  0  0  0999 V2000
   16.2620   39.4180  122.7220 C   0  0  0  0  0  0  0  0  0  0  0  0
   16.6970   40.5660  122.7340 O   0  0  0  0  0  0  0  0  0  0  0  0
   15.1880   38.9620  122.0430 O   0  0  0  0  0  0  0  0  0  0  0  0
   14.3240   38.0710  122.7720 C   0  0  0  0  0  0  0  0  0  0  0  0
   13.4210   38.8760  123.7290 C   0  0  0  0  0  0  0  0  0  0  0  0
   12.2060   39.4530  122.9710 C   0  0  0  0  0  0  0  0  0  0  0  0
   11.5230   40.6090  123.6850 C   0  0  0  0  0  0  0  0  0  0  0  0
   13.0470   38.0610  124.9870 C   0  0  0  0  0  0  0  0  0  0  0  0
   13.2130   36.5510  124.8830 C   0  0  0  0  0  0  0  0  0  0  0  0
   16.9700   38.3000  123.4880 C   0  0  2  0  0  0  0  0  0  0  0  0
   16.6200   38.3040  124.9800 C   0  0  0  0  0  0  0  0  0  0  0  0
   18.4820   38.4290  123.2980 N   0  0  0  0  0  4  0  0  0  0  0  0
   17.5980   37.4870  125.8420 C   0  0  1  0  0  0  0  0  0  0  0  0
   19.2380   38.9240  124.4750 C   0  0  0  0  0  0  0  0  0  0  0  0
   17.4140   35.9820  125.5910 C   0  0  0  0  0  0  0  0  0  0  0  0
   19.0620   37.9490  125.6440 C   0  0  2  0  0  0  0  0  0  0  0  0
   18.3420   35.0760  126.4290 C   0  0  2  0  0  0  0  0  0  0  0  0
   20.0370   36.7620  125.5320 C   0  0  0  0  0  0  0  0  0  0  0  0
   19.7370   35.7160  126.6020 C   0  0  0  0  0  0  0  0  0  0  0  0
   18.8760   37.5460  122.9510 H   0  0  0  0  0  0  0  0  0  0  0  0
   18.6140   39.1120  122.5260 H   0  0  0  0  0  0  0  0  0  0  0  0
   18.2250   33.7740  125.7980 O   0  0  0  0  0  0  0  0  0  0  0  0
   19.3680   33.1680  125.3510 C   0  0  0  0  0  0  0  0  0  0  0  0
   19.9260   33.6970  124.1840 C   0  0  0  0  0  0  0  0  0  0  0  0
   19.9110   32.0190  125.9610 C   0  0  0  0  0  0  0  0  0  0  0  0
   21.0850   33.1340  123.6490 C   0  0  0  0  0  0  0  0  0  0  0  0
   21.0870   31.4720  125.4160 C   0  0  0  0  0  0  0  0  0  0  0  0
   21.6710   32.0330  124.2710 C   0  0  0  0  0  0  0  0  0  0  0  0
   21.8460   30.0670  126.0850 Cl  0  0  0  0  0  0  0  0  0  0  0  0
   19.2610   31.4320  127.1230 C   0  0  0  0  0  0  0  0  0  0  0  0
   19.3580   30.1960  127.5770 N   0  0  0  0  0  0  0  0  0  0  0  0
   18.4490   32.1210  127.9810 N   0  0  0  0  0  0  0  0  0  0  0  0
   18.6180   30.1490  128.7330 N   0  0  0  0  0  0  0  0  0  0  0  0
   18.0790   31.3300  128.9980 N   0  0  0  0  0  0  0  0  0  0  0  0
   18.1530   33.0890  127.9570 H   0  0  0  0  0  0  0  0  0  0  0  0
  1  2  2  0  0  0  0
  3  1  1  0  0  0  0
  3  4  1  0  0  0  0
  4  5  1  0  0  0  0
  5  8  1  0  0  0  0
  6  7  1  0  0  0  0
  6  5  1  0  0  0  0
  9  8  1  0  0  0  0
 10  1  1  6  0  0  0
 10 11  1  0  0  0  0
 12 10  1  0  0  0  0
 12 14  1  0  0  0  0
 13 11  1  6  0  0  0
 15 13  1  0  0  0  0
 15 17  1  0  0  0  0
 16 14  1  6  0  0  0
 16 13  1  0  0  0  0
 17 22  1  6  0  0  0
 17 19  1  0  0  0  0
 18 16  1  0  0  0  0
 18 19  1  0  0  0  0
 20 12  1  0  0  0  0
 21 12  1  0  0  0  0
 23 22  1  0  0  0  0
 23 25  1  0  0  0  0
 24 23  2  0  0  0  0
 25 30  1  0  0  0  0
 26 24  1  0  0  0  0
 26 28  2  0  0  0  0
 27 25  2  0  0  0  0
 27 29  1  0  0  0  0
 28 27  1  0  0  0  0
 30 31  2  0  0  0  0
 30 32  1  0  0  0  0
 31 33  1  0  0  0  0
 32 34  1  0  0  0  0
 33 34  2  0  0  0  0
 35 32  1  0  0  0  0
M  END
>  <minimizedAffinity>
-7.90175438

>  <CNNscore>
0.315145344

>  <CNNaffinity>
6.54731226

$$$$

 OpenBabel08272614583D

 35 38  0  0  1  0  0  0  0  0999 V2000
   19.1040   33.3500  125.7620 C   0  0  0  0  0  0  0  0  0  0  0  0
   19.2530   32.6890  124.7390 O   0  0  0  0  0  0  0  0  0  0  0  0
   19.3260   32.9470  127.0310 O   0  0  0  0  0  0  0  0  0  0  0  0
   18.1840   32.4090  127.7220 C   0  0  0  0  0  0  0  0  0  0  0  0
   18.3900   30.9050  127.9920 C   0  0  0  0  0  0  0  0  0  0  0  0
   17.8690   30.0650  126.8060 C   0  0  0  0  0  0  0  0  0  0  0  0
   17.1740   28.7760  127.2180 C   0  0  0  0  0  0  0  0  0  0  0  0
   19.8470   30.5880  128.3940 C   0  0  0  0  0  0  0  0  0  0  0  0
   20.1640   30.6580  129.8820 C   0  0  0  0  0  0  0  0  0  0  0  0
   18.6720   34.8150  125.6960 C   0  0  2  0  0  0  0  0  0  0  0  0
   18.8740   35.4190  124.3020 C   0  0  0  0  0  0  0  0  0  0  0  0
   19.4430   35.6230  126.7400 N   0  0  0  0  0  4  0  0  0  0  0  0
   18.8460   36.9580  124.2900 C   0  0  1  0  0  0  0  0  0  0  0  0
   20.5030   36.5150  126.2090 C   0  0  0  0  0  0  0  0  0  0  0  0
   17.4200   37.4760  124.5350 C   0  0  0  0  0  0  0  0  0  0  0  0
   19.8760   37.5580  125.2780 C   0  0  2  0  0  0  0  0  0  0  0  0
   17.2890   39.0140  124.5220 C   0  0  2  0  0  0  0  0  0  0  0  0
   19.2960   38.7410  126.0750 C   0  0  0  0  0  0  0  0  0  0  0  0
   18.5270   39.6850  125.1550 C   0  0  0  0  0  0  0  0  0  0  0  0
   18.7930   36.1410  127.3440 H   0  0  0  0  0  0  0  0  0  0  0  0
   19.8970   34.9240  127.3600 H   0  0  0  0  0  0  0  0  0  0  0  0
   15.9750   39.2590  125.0880 O   0  0  0  0  0  0  0  0  0  0  0  0
   14.8770   38.9340  124.3380 C   0  0  0  0  0  0  0  0  0  0  0  0
   14.6660   39.7080  123.1940 C   0  0  0  0  0  0  0  0  0  0  0  0
   13.9500   37.9460  124.7280 C   0  0  0  0  0  0  0  0  0  0  0  0
   13.5650   39.4560  122.3750 C   0  0  0  0  0  0  0  0  0  0  0  0
   12.8520   37.6960  123.8850 C   0  0  0  0  0  0  0  0  0  0  0  0
   12.6680   38.4440  122.7130 C   0  0  0  0  0  0  0  0  0  0  0  0
   11.6550   36.5030  124.2600 Cl  0  0  0  0  0  0  0  0  0  0  0  0
   14.1430   37.2140  125.9710 C   0  0  0  0  0  0  0  0  0  0  0  0
   14.9000   36.1530  126.1860 N   0  0  0  0  0  0  0  0  0  0  0  0
   13.5740   37.5590  127.1650 N   0  0  0  0  0  0  0  0  0  0  0  0
   14.8050   35.8750  127.5270 N   0  0  0  0  0  0  0  0  0  0  0  0
   14.0150   36.7470  128.1360 N   0  0  0  0  0  0  0  0  0  0  0  0
   12.9420   38.3190  127.3870 H   0  0  0  0  0  0  0  0  0  0  0  0
  1  3  1  0  0  0  0
  2  1  2  0  0  0  0
  3  4  1  0  0  0  0
  4  5  1  0  0  0  0
  5  8  1  0  0  0  0
  6  7  1  0  0  0  0
  6  5  1  0  0  0  0
  8  9  1  0  0  0  0
 10  1  1  6  0  0  0
 10 12  1  0  0  0  0
 11 10  1  0  0  0  0
 12 20  1  0  0  0  0
 12 21  1  0  0  0  0
 13 11  1  1  0  0  0
 13 15  1  0  0  0  0
 13 16  1  0  0  0  0
 14 12  1  0  0  0  0
 16 18  1  1  0  0  0
 16 14  1  0  0  0  0
 17 15  1  0  0  0  0
 17 22  1  1  0  0  0
 17 19  1  0  0  0  0
 19 18  1  0  0  0  0
 23 25  1  0  0  0  0
 23 22  1  0  0  0  0
 24 23  2  0  0  0  0
 25 30  1  0  0  0  0
 26 28  2  0  0  0  0
 26 24  1  0  0  0  0
 27 29  1  0  0  0  0
 27 25  2  0  0  0  0
 28 27  1  0  0  0  0
 30 31  2  0  0  0  0
 30 32  1  0  0  0  0
 31 33  1  0  0  0  0
 32 35  1  0  0  0  0
 32 34  1  0  0  0  0
 33 34  2  0  0  0  0
M  END
>  <minimizedAffinity>
-8.73628044

>  <CNNscore>
0.307338178

>  <CNNaffinity>
6.73285675

$$$$

 OpenBabel08272614583D

 35 38  0  0  1  0  0  0  0  0999 V2000
   11.7870   41.5040  121.9170 C   0  0  0  0  0  0  0  0  0  0  0  0
   11.8390   42.1960  120.9040 O   0  0  0  0  0  0  0  0  0  0  0  0
   10.7090   41.2890  122.7010 O   0  0  0  0  0  0  0  0  0  0  0  0
   10.3000   42.4030  123.5160 C   0  0  0  0  0  0  0  0  0  0  0  0
    8.8610   42.8230  123.1550 C   0  0  0  0  0  0  0  0  0  0  0  0
    7.8900   42.4630  124.3000 C   0  0  0  0  0  0  0  0  0  0  0  0
    6.9300   41.3320  123.9650 C   0  0  0  0  0  0  0  0  0  0  0  0
    8.7870   44.3000  122.7100 C   0  0  0  0  0  0  0  0  0  0  0  0
    7.7340   45.1580  123.3970 C   0  0  0  0  0  0  0  0  0  0  0  0
   13.0080   40.7200  122.3980 C   0  0  2  0  0  0  0  0  0  0  0  0
   13.2120   40.8360  123.9130 C   0  0  0  0  0  0  0  0  0  0  0  0
   14.2530   41.2080  121.6570 N   0  0  0  0  0  4  0  0  0  0  0  0
   14.6200   40.4220  124.3750 C   0  0  1  0  0  0  0  0  0  0  0  0
   15.1930   42.0350  122.4530 C   0  0  0  0  0  0  0  0  0  0  0  0
   14.8040   38.9010  124.2570 C   0  0  0  0  0  0  0  0  0  0  0  0
   15.7240   41.2150  123.6330 C   0  0  2  0  0  0  0  0  0  0  0  0
   16.1860   38.3870  124.7180 C   0  0  2  0  0  0  0  0  0  0  0  0
   16.8980   40.3160  123.2040 C   0  0  0  0  0  0  0  0  0  0  0  0
   17.3050   39.3820  124.3410 C   0  0  0  0  0  0  0  0  0  0  0  0
   14.7390   40.4180  121.2160 H   0  0  0  0  0  0  0  0  0  0  0  0
   13.9050   41.7910  120.8710 H   0  0  0  0  0  0  0  0  0  0  0  0
   16.2390   37.0260  124.2160 O   0  0  0  0  0  0  0  0  0  0  0  0
   17.1060   36.1510  124.8110 C   0  0  0  0  0  0  0  0  0  0  0  0
   18.3490   36.0010  124.1890 C   0  0  0  0  0  0  0  0  0  0  0  0
   16.7530   35.3660  125.9280 C   0  0  0  0  0  0  0  0  0  0  0  0
   19.2920   35.1210  124.7200 C   0  0  0  0  0  0  0  0  0  0  0  0
   17.7200   34.4930  126.4580 C   0  0  0  0  0  0  0  0  0  0  0  0
   18.9830   34.3790  125.8590 C   0  0  0  0  0  0  0  0  0  0  0  0
   17.4010   33.4870  127.8300 Cl  0  0  0  0  0  0  0  0  0  0  0  0
   15.4210   35.4740  126.5040 C   0  0  0  0  0  0  0  0  0  0  0  0
   15.0900   35.7450  127.7530 N   0  0  0  0  0  0  0  0  0  0  0  0
   14.2610   35.3440  125.7930 N   0  0  0  0  0  0  0  0  0  0  0  0
   13.7190   35.8060  127.7860 N   0  0  0  0  0  0  0  0  0  0  0  0
   13.2070   35.5860  126.5850 N   0  0  0  0  0  0  0  0  0  0  0  0
   14.1220   35.1430  124.8100 H   0  0  0  0  0  0  0  0  0  0  0  0
  1  3  1  0  0  0  0
  2  1  2  0  0  0  0
  3  4  1  0  0  0  0
  5  4  1  0  0  0  0
  5  6  1  0  0  0  0
  7  6  1  0  0  0  0
  8  5  1  0  0  0  0
  8  9  1  0  0  0  0
 10  1  1  6  0  0  0
 10 11  1  0  0  0  0
 12 10  1  0  0  0  0
 12 14  1  0  0  0  0
 13 11  1  6  0  0  0
 15 13  1  0  0  0  0
 15 17  1  0  0  0  0
 16 14  1  6  0  0  0
 16 13  1  0  0  0  0
 17 22  1  6  0  0  0
 18 16  1  0  0  0  0
 18 19  1  0  0  0  0
 19 17  1  0  0  0  0
 20 12  1  0  0  0  0
 21 12  1  0  0  0  0
 22 23  1  0  0  0  0
 23 25  1  0  0  0  0
 24 26  1  0  0  0  0
 24 23  2  0  0  0  0
 25 27  2  0  0  0  0
 25 30  1  0  0  0  0
 26 28  2  0  0  0  0
 27 29  1  0  0  0  0
 28 27  1  0  0  0  0
 30 31  2  0  0  0  0
 31 33  1  0  0  0  0
 32 30  1  0  0  0  0
 32 34  1  0  0  0  0
 34 33  2  0  0  0  0
 35 32  1  0  0  0  0
M  END
>  <minimizedAffinity>
-8.35675621

>  <CNNscore>
0.297975898

>  <CNNaffinity>
6.13737917

$$$$

 OpenBabel08272614583D

 35 38  0  0  1  0  0  0  0  0999 V2000
   18.0540   33.5920  126.4860 C   0  0  0  0  0  0  0  0  0  0  0  0
   17.6090   33.2320  127.5710 O   0  0  0  0  0  0  0  0  0  0  0  0
   18.6530   32.8180  125.5550 O   0  0  0  0  0  0  0  0  0  0  0  0
   18.8710   31.4460  125.9330 C   0  0  0  0  0  0  0  0  0  0  0  0
   20.1780   31.3230  126.7420 C   0  0  0  0  0  0  0  0  0  0  0  0
   20.0380   30.2420  127.8350 C   0  0  0  0  0  0  0  0  0  0  0  0
   19.9770   30.7970  129.2490 C   0  0  0  0  0  0  0  0  0  0  0  0
   21.4060   31.1320  125.8230 C   0  0  0  0  0  0  0  0  0  0  0  0
   21.5350   32.1100  124.6630 C   0  0  0  0  0  0  0  0  0  0  0  0
   17.9230   35.0420  126.0230 C   0  0  2  0  0  0  0  0  0  0  0  0
   18.1390   35.1930  124.5130 C   0  0  0  0  0  0  0  0  0  0  0  0
   18.9160   35.9160  126.7900 N   0  0  0  0  0  4  0  0  0  0  0  0
   18.4220   36.6400  124.0740 C   0  0  1  0  0  0  0  0  0  0  0  0
   20.0920   36.3840  126.0150 C   0  0  0  0  0  0  0  0  0  0  0  0
   17.1520   37.4990  124.1880 C   0  0  0  0  0  0  0  0  0  0  0  0
   19.6210   37.2480  124.8410 C   0  0  2  0  0  0  0  0  0  0  0  0
   17.3330   38.9680  123.7500 C   0  0  2  0  0  0  0  0  0  0  0  0
   19.3530   38.6970  125.2870 C   0  0  0  0  0  0  0  0  0  0  0  0
   18.7250   39.5020  124.1530 C   0  0  0  0  0  0  0  0  0  0  0  0
   18.4300   36.7030  127.2350 H   0  0  0  0  0  0  0  0  0  0  0  0
   19.2640   35.3290  127.5720 H   0  0  0  0  0  0  0  0  0  0  0  0
   16.1410   39.6320  124.2450 O   0  0  0  0  0  0  0  0  0  0  0  0
   15.2890   40.1960  123.3350 C   0  0  0  0  0  0  0  0  0  0  0  0
   14.6570   39.3100  122.4580 C   0  0  0  0  0  0  0  0  0  0  0  0
   15.1190   41.5890  123.2080 C   0  0  0  0  0  0  0  0  0  0  0  0
   13.7800   39.7970  121.4880 C   0  0  0  0  0  0  0  0  0  0  0  0
   14.2210   42.0630  122.2340 C   0  0  0  0  0  0  0  0  0  0  0  0
   13.5530   41.1680  121.3860 C   0  0  0  0  0  0  0  0  0  0  0  0
   13.9290   43.7520  121.9940 Cl  0  0  0  0  0  0  0  0  0  0  0  0
   15.8570   42.4960  124.0750 C   0  0  0  0  0  0  0  0  0  0  0  0
   15.6910   42.7100  125.3670 N   0  0  0  0  0  0  0  0  0  0  0  0
   16.9100   43.2670  123.6650 N   0  0  0  0  0  0  0  0  0  0  0  0
   16.6700   43.5970  125.7420 N   0  0  0  0  0  0  0  0  0  0  0  0
   17.4340   43.9230  124.7100 N   0  0  0  0  0  0  0  0  0  0  0  0
   17.3260   43.3600  122.7460 H   0  0  0  0  0  0  0  0  0  0  0  0
  1  2  2  0  0  0  0
  3  4  1  0  0  0  0
  3  1  1  0  0  0  0
  4  5  1  0  0  0  0
  5  6  1  0  0  0  0
  6  7  1  0  0  0  0
  8  5  1  0  0  0  0
  9  8  1  0  0  0  0
 10  1  1  1  0  0  0
 10 12  1  0  0  0  0
 11 10  1  0  0  0  0
 12 20  1  0  0  0  0
 12 21  1  0  0  0  0
 13 15  1  1  0  0  0
 13 11  1  0  0  0  0
 13 16  1  0  0  0  0
 14 12  1  0  0  0  0
 16 18  1  1  0  0  0
 16 14  1  0  0  0  0
 17 19  1  0  0  0  0
 17 15  1  0  0  0  0
 17 22  1  1  0  0  0
 19 18  1  0  0  0  0
 23 22  1  0  0  0  0
 24 23  2  0  0  0  0
 25 23  1  0  0  0  0
 25 30  1  0  0  0  0
 26 24  1  0  0  0  0
 27 25  2  0  0  0  0
 28 26  2  0  0  0  0
 28 27  1  0  0  0  0
 29 27  1  0  0  0  0
 30 31  2  0  0  0  0
 31 33  1  0  0  0  0
 32 30  1  0  0  0  0
 32 34  1  0  0  0  0
 34 33  2  0  0  0  0
 35 32  1  0  0  0  0
M  END
>  <minimizedAffinity>
-8.01256275

>  <CNNscore>
0.281447202

>  <CNNaffinity>
6.4619174

$$$$
