
 OpenBabel08272609443D

 40 44  0  0  1  0  0  0  0  0999 V2000
   14.7220   37.6660  123.0570 C   0  0  1  0  0  0  0  0  0  0  0  0
   15.5470   38.4270  123.9610 O   0  0  0  0  0  0  0  0  0  0  0  0
   15.8200   37.7740  125.2060 C   0  0  1  0  0  0  0  0  0  0  0  0
   14.4910   37.4910  125.9310 C   0  0  0  0  0  0  0  0  0  0  0  0
   13.5210   36.7160  125.0390 C   0  0  0  0  0  0  0  0  0  0  0  0
   13.3320   37.4130  123.6820 C   0  0  1  0  0  0  0  0  0  0  0  0
   12.4970   38.6920  123.8420 C   0  0  0  0  0  0  0  0  0  0  0  0
   16.4510   36.4990  125.0040 O   0  0  0  0  0  0  0  0  0  0  0  0
   17.8850   36.4440  124.8350 C   0  0  1  0  0  0  0  0  0  0  0  0
   18.4170   37.8000  124.3360 C   0  0  2  0  0  0  0  0  0  0  0  0
   19.8750   37.8330  123.8840 C   0  0  0  0  0  0  0  0  0  0  0  0
   18.0960   38.9170  125.3310 C   0  0  0  0  0  0  0  0  0  0  0  0
   16.7360   38.7110  126.0350 C   0  0  1  0  0  0  0  0  0  0  0  0
   16.1270   40.0790  126.3540 C   0  0  0  0  0  0  0  0  0  0  0  0
   14.7060   38.4340  121.7300 C   0  0  0  0  0  0  0  0  0  0  0  0
   14.3480   39.8600  121.8880 C   0  0  0  0  0  0  0  0  0  0  0  0
   13.0620   44.1510  122.3340 C   0  0  0  0  0  0  0  0  0  0  0  0
   14.2780   44.1440  123.0670 C   0  0  0  0  0  0  0  0  0  0  0  0
   12.6120   42.9310  121.7600 C   0  0  0  0  0  0  0  0  0  0  0  0
   15.0890   43.0160  123.2080 C   0  0  0  0  0  0  0  0  0  0  0  0
   13.4260   41.7820  121.8910 C   0  0  0  0  0  0  0  0  0  0  0  0
   14.6120   41.8700  122.6010 C   0  0  0  0  0  0  0  0  0  0  0  0
   13.2860   40.4850  121.4340 N   0  0  0  0  0  0  0  0  0  0  0  0
   15.2100   40.6410  122.6070 O   0  0  0  0  0  0  0  0  0  0  0  0
   12.3670   45.3770  122.3840 N   0  0  0  0  0  0  0  0  0  0  0  0
   11.2830   45.5740  123.3320 C   0  0  0  0  0  0  0  0  0  0  0  0
   12.1130   45.6920  121.4540 H   0  0  0  0  0  0  0  0  0  0  0  0
   11.3380   42.7380  121.0170 C   0  0  0  0  0  0  0  0  0  0  0  0
   11.1820   43.4180  119.9520 O   0  0  0  0  0  0  0  0  0  0  0  0
   10.4950   41.9300  121.5190 O   0  0  0  0  0  0  0  0  0  0  0  0
   18.4610   35.8460  126.1430 C   0  0  2  0  0  0  0  0  0  0  0  0
   19.9760   35.6890  126.2090 C   0  0  0  0  0  0  0  0  0  0  0  0
   17.8550   34.4510  126.3260 C   0  0  0  0  0  0  0  0  0  0  0  0
   16.6460   34.2690  126.1620 O   0  0  0  0  0  0  0  0  0  0  0  0
   18.7340   33.3380  126.6520 C   0  0  0  0  0  0  0  0  0  0  0  0
   19.4140   32.4220  125.8700 C   0  0  0  0  0  0  0  0  0  0  0  0
   19.0410   33.0330  127.9620 N   0  0  0  0  0  0  0  0  0  0  0  0
   20.1170   31.5400  126.7280 C   0  0  0  0  0  0  0  0  0  0  0  0
   19.8540   31.9330  128.0170 C   0  0  0  0  0  0  0  0  0  0  0  0
   18.6900   33.5550  128.7540 H   0  0  0  0  0  0  0  0  0  0  0  0
  1 15  1  6  0  0  0
  1  6  1  0  0  0  0
  1  2  1  0  0  0  0
  2  3  1  0  0  0  0
  3  4  1  1  0  0  0
  3 13  1  0  0  0  0
  5  4  1  0  0  0  0
  6  7  1  1  0  0  0
  6  5  1  0  0  0  0
  8  3  1  0  0  0  0
  9  8  1  0  0  0  0
  9 31  1  1  0  0  0
 10 11  1  1  0  0  0
 10  9  1  0  0  0  0
 10 12  1  0  0  0  0
 12 13  1  0  0  0  0
 13 14  1  6  0  0  0
 15 16  1  0  0  0  0
 16 24  1  0  0  0  0
 17 25  1  0  0  0  0
 17 18  1  0  0  0  0
 18 20  2  0  0  0  0
 19 21  1  0  0  0  0
 19 17  2  0  0  0  0
 21 22  2  0  0  0  0
 22 24  1  0  0  0  0
 22 20  1  0  0  0  0
 23 16  2  0  0  0  0
 23 21  1  0  0  0  0
 25 26  1  0  0  0  0
 27 25  1  0  0  0  0
 28 30  1  0  0  0  0
 28 19  1  0  0  0  0
 29 28  2  0  0  0  0
 31 32  1  6  0  0  0
 31 33  1  0  0  0  0
 33 35  1  0  0  0  0
 34 33  2  0  0  0  0
 35 37  1  0  0  0  0
 36 35  2  0  0  0  0
 36 38  1  0  0  0  0
 37 39  1  0  0  0  0
 37 40  1  0  0  0  0
 38 39  2  0  0  0  0
M  END
>  <minimizedAffinity>
-8.31363869

>  <CNNscore>
0.580438316

>  <CNNaffinity>
6.98513842

$$$$

 OpenBabel08272609443D

 40 44  0  0  1  0  0  0  0  0999 V2000
   15.1100   39.5860  122.9540 C   0  0  1  0  0  0  0  0  0  0  0  0
   14.7900   40.7550  122.1760 O   0  0  0  0  0  0  0  0  0  0  0  0
   13.4070   41.1250  122.2030 C   0  0  1  0  0  0  0  0  0  0  0  0
   12.5620   39.9620  121.6500 C   0  0  0  0  0  0  0  0  0  0  0  0
   12.8560   38.6560  122.3860 C   0  0  0  0  0  0  0  0  0  0  0  0
   14.3620   38.3510  122.4050 C   0  0  1  0  0  0  0  0  0  0  0  0
   14.8450   37.9220  121.0110 C   0  0  0  0  0  0  0  0  0  0  0  0
   12.9500   41.3530  123.5470 O   0  0  0  0  0  0  0  0  0  0  0  0
   13.1520   42.6530  124.1450 C   0  0  1  0  0  0  0  0  0  0  0  0
   14.3170   43.3840  123.4540 C   0  0  2  0  0  0  0  0  0  0  0  0
   14.8080   44.6660  124.1240 C   0  0  0  0  0  0  0  0  0  0  0  0
   14.0360   43.5840  121.9630 C   0  0  0  0  0  0  0  0  0  0  0  0
   13.2480   42.4070  121.3470 C   0  0  1  0  0  0  0  0  0  0  0  0
   13.6540   42.2480  119.8790 C   0  0  0  0  0  0  0  0  0  0  0  0
   16.6390   39.4700  122.9580 C   0  0  0  0  0  0  0  0  0  0  0  0
   17.1320   38.3160  123.7390 C   0  0  0  0  0  0  0  0  0  0  0  0
   18.4440   34.7300  126.1240 C   0  0  0  0  0  0  0  0  0  0  0  0
   19.6540   35.0970  125.4790 C   0  0  0  0  0  0  0  0  0  0  0  0
   17.2720   35.4840  125.8410 C   0  0  0  0  0  0  0  0  0  0  0  0
   19.7720   36.1950  124.6240 C   0  0  0  0  0  0  0  0  0  0  0  0
   17.3780   36.6010  124.9800 C   0  0  0  0  0  0  0  0  0  0  0  0
   18.6050   36.9050  124.4140 C   0  0  0  0  0  0  0  0  0  0  0  0
   16.4530   37.5290  124.5410 N   0  0  0  0  0  0  0  0  0  0  0  0
   18.4580   38.0020  123.6130 O   0  0  0  0  0  0  0  0  0  0  0  0
   18.5340   33.5460  126.8840 N   0  0  0  0  0  0  0  0  0  0  0  0
   19.3400   32.4290  126.4200 C   0  0  0  0  0  0  0  0  0  0  0  0
   17.6180   33.2420  127.1970 H   0  0  0  0  0  0  0  0  0  0  0  0
   15.9120   35.2060  126.3730 C   0  0  0  0  0  0  0  0  0  0  0  0
   14.9880   35.0030  125.5210 O   0  0  0  0  0  0  0  0  0  0  0  0
   15.7720   35.2220  127.6370 O   0  0  0  0  0  0  0  0  0  0  0  0
   11.7620   43.3360  124.1970 C   0  0  2  0  0  0  0  0  0  0  0  0
   11.5720   44.4100  125.2620 C   0  0  0  0  0  0  0  0  0  0  0  0
   10.7160   42.2480  124.4620 C   0  0  0  0  0  0  0  0  0  0  0  0
   11.0670   41.0970  124.7340 O   0  0  0  0  0  0  0  0  0  0  0  0
    9.3050   42.6040  124.4320 C   0  0  0  0  0  0  0  0  0  0  0  0
    8.2260   42.0930  123.7330 C   0  0  0  0  0  0  0  0  0  0  0  0
    8.8120   43.6270  125.2140 N   0  0  0  0  0  0  0  0  0  0  0  0
    7.0750   42.8420  124.0850 C   0  0  0  0  0  0  0  0  0  0  0  0
    7.4720   43.7950  124.9890 C   0  0  0  0  0  0  0  0  0  0  0  0
    9.3850   44.1740  125.8440 H   0  0  0  0  0  0  0  0  0  0  0  0
  1 15  1  6  0  0  0
  2  3  1  0  0  0  0
  2  1  1  0  0  0  0
  3  4  1  6  0  0  0
  3  8  1  0  0  0  0
  4  5  1  0  0  0  0
  5  6  1  0  0  0  0
  6  7  1  6  0  0  0
  6  1  1  0  0  0  0
  8  9  1  0  0  0  0
  9 31  1  6  0  0  0
 10 11  1  1  0  0  0
 10  9  1  0  0  0  0
 12 10  1  0  0  0  0
 13 14  1  6  0  0  0
 13 12  1  0  0  0  0
 13  3  1  0  0  0  0
 15 16  1  0  0  0  0
 16 23  2  0  0  0  0
 17 25  1  0  0  0  0
 18 17  2  0  0  0  0
 19 17  1  0  0  0  0
 19 28  1  0  0  0  0
 20 18  1  0  0  0  0
 21 19  2  0  0  0  0
 22 20  2  0  0  0  0
 22 21  1  0  0  0  0
 23 21  1  0  0  0  0
 24 16  1  0  0  0  0
 24 22  1  0  0  0  0
 25 27  1  0  0  0  0
 26 25  1  0  0  0  0
 28 30  1  0  0  0  0
 29 28  2  0  0  0  0
 31 33  1  0  0  0  0
 31 32  1  1  0  0  0
 33 34  2  0  0  0  0
 35 33  1  0  0  0  0
 35 37  1  0  0  0  0
 36 38  1  0  0  0  0
 36 35  2  0  0  0  0
 37 40  1  0  0  0  0
 38 39  2  0  0  0  0
 39 37  1  0  0  0  0
M  END
>  <minimizedAffinity>
-10.3649502

>  <CNNscore>
0.253018141

>  <CNNaffinity>
6.15311241

$$$$

 OpenBabel08272609443D

 40 44  0  0  1  0  0  0  0  0999 V2000
   16.8450   37.4430  124.9570 C   0  0  1  0  0  0  0  0  0  0  0  0
   16.5050   38.6520  124.2510 O   0  0  0  0  0  0  0  0  0  0  0  0
   15.8470   39.6410  125.0520 C   0  0  1  0  0  0  0  0  0  0  0  0
   14.5370   39.0520  125.6070 C   0  0  0  0  0  0  0  0  0  0  0  0
   14.7830   37.7370  126.3460 C   0  0  0  0  0  0  0  0  0  0  0  0
   15.5680   36.7440  125.4750 C   0  0  1  0  0  0  0  0  0  0  0  0
   14.6810   36.1920  124.3490 C   0  0  0  0  0  0  0  0  0  0  0  0
   16.6420   40.0070  126.1920 O   0  0  0  0  0  0  0  0  0  0  0  0
   17.6570   41.0240  126.0420 C   0  0  1  0  0  0  0  0  0  0  0  0
   18.0940   41.1300  124.5700 C   0  0  2  0  0  0  0  0  0  0  0  0
   19.3240   41.9890  124.2870 C   0  0  0  0  0  0  0  0  0  0  0  0
   16.9130   41.5000  123.6700 C   0  0  0  0  0  0  0  0  0  0  0  0
   15.5850   40.8740  124.1510 C   0  0  1  0  0  0  0  0  0  0  0  0
   14.6950   40.5980  122.9350 C   0  0  0  0  0  0  0  0  0  0  0  0
   17.7000   36.6050  123.9990 C   0  0  0  0  0  0  0  0  0  0  0  0
   18.2690   35.3970  124.6330 C   0  0  0  0  0  0  0  0  0  0  0  0
   19.8230   31.6880  126.6570 C   0  0  0  0  0  0  0  0  0  0  0  0
   20.6920   31.7840  125.5380 C   0  0  0  0  0  0  0  0  0  0  0  0
   18.7900   32.6550  126.7940 C   0  0  0  0  0  0  0  0  0  0  0  0
   20.6260   32.8100  124.5940 C   0  0  0  0  0  0  0  0  0  0  0  0
   18.7150   33.7030  125.8470 C   0  0  0  0  0  0  0  0  0  0  0  0
   19.6220   33.7360  124.8010 C   0  0  0  0  0  0  0  0  0  0  0  0
   17.8660   34.7870  125.7230 N   0  0  0  0  0  0  0  0  0  0  0  0
   19.3420   34.8170  124.0140 O   0  0  0  0  0  0  0  0  0  0  0  0
   20.0180   30.5320  127.4400 N   0  0  0  0  0  0  0  0  0  0  0  0
   20.5160   30.6370  128.8010 C   0  0  0  0  0  0  0  0  0  0  0  0
   20.5090   29.8140  126.9170 H   0  0  0  0  0  0  0  0  0  0  0  0
   17.7550   32.6750  127.8620 C   0  0  0  0  0  0  0  0  0  0  0  0
   17.2090   33.7970  128.1170 O   0  0  0  0  0  0  0  0  0  0  0  0
   17.5160   31.5750  128.4540 O   0  0  0  0  0  0  0  0  0  0  0  0
   17.1250   42.2880  126.7620 C   0  0  2  0  0  0  0  0  0  0  0  0
   17.3540   43.6200  126.0550 C   0  0  0  0  0  0  0  0  0  0  0  0
   17.8180   42.3770  128.1260 C   0  0  0  0  0  0  0  0  0  0  0  0
   17.2200   42.8420  129.1000 O   0  0  0  0  0  0  0  0  0  0  0  0
   19.1720   41.8650  128.2640 C   0  0  0  0  0  0  0  0  0  0  0  0
   20.3850   42.2700  127.7350 C   0  0  0  0  0  0  0  0  0  0  0  0
   19.4430   40.7690  129.0570 N   0  0  0  0  0  0  0  0  0  0  0  0
   21.3900   41.3860  128.2000 C   0  0  0  0  0  0  0  0  0  0  0  0
   20.7740   40.4570  129.0020 C   0  0  0  0  0  0  0  0  0  0  0  0
   18.7350   40.2730  129.5840 H   0  0  0  0  0  0  0  0  0  0  0  0
  1 15  1  6  0  0  0
  1  6  1  0  0  0  0
  2  1  1  0  0  0  0
  2  3  1  0  0  0  0
  3  4  1  1  0  0  0
  3  8  1  0  0  0  0
  4  5  1  0  0  0  0
  6  7  1  6  0  0  0
  6  5  1  0  0  0  0
  9  8  1  0  0  0  0
  9 31  1  6  0  0  0
 10 11  1  1  0  0  0
 10  9  1  0  0  0  0
 12 13  1  0  0  0  0
 12 10  1  0  0  0  0
 13 14  1  6  0  0  0
 13  3  1  0  0  0  0
 15 16  1  0  0  0  0
 16 23  2  0  0  0  0
 17 19  1  0  0  0  0
 17 25  1  0  0  0  0
 18 17  2  0  0  0  0
 19 28  1  0  0  0  0
 20 22  2  0  0  0  0
 20 18  1  0  0  0  0
 21 19  2  0  0  0  0
 22 21  1  0  0  0  0
 23 21  1  0  0  0  0
 24 16  1  0  0  0  0
 24 22  1  0  0  0  0
 25 26  1  0  0  0  0
 27 25  1  0  0  0  0
 28 29  2  0  0  0  0
 28 30  1  0  0  0  0
 31 32  1  6  0  0  0
 31 33  1  0  0  0  0
 33 35  1  0  0  0  0
 33 34  2  0  0  0  0
 35 37  1  0  0  0  0
 36 38  1  0  0  0  0
 36 35  2  0  0  0  0
 37 40  1  0  0  0  0
 38 39  2  0  0  0  0
 39 37  1  0  0  0  0
M  END
>  <minimizedAffinity>
-8.61829472

>  <CNNscore>
0.217415169

>  <CNNaffinity>
6.66044092

$$$$

 OpenBabel08272609443D

 40 44  0  0  1  0  0  0  0  0999 V2000
   19.1940   39.3540  124.6020 C   0  0  1  0  0  0  0  0  0  0  0  0
   18.0100   38.5680  124.8420 O   0  0  0  0  0  0  0  0  0  0  0  0
   16.8240   39.3370  125.0710 C   0  0  1  0  0  0  0  0  0  0  0  0
   17.0340   40.2350  126.3050 C   0  0  0  0  0  0  0  0  0  0  0  0
   18.2950   41.0880  126.1680 C   0  0  0  0  0  0  0  0  0  0  0  0
   19.5210   40.2240  125.8350 C   0  0  1  0  0  0  0  0  0  0  0  0
   19.9530   39.4020  127.0590 C   0  0  0  0  0  0  0  0  0  0  0  0
   16.5490   40.2200  123.9700 O   0  0  0  0  0  0  0  0  0  0  0  0
   15.8180   39.7140  122.8310 C   0  0  1  0  0  0  0  0  0  0  0  0
   15.9560   38.1830  122.7440 C   0  0  2  0  0  0  0  0  0  0  0  0
   15.4400   37.5260  121.4660 C   0  0  0  0  0  0  0  0  0  0  0  0
   15.4050   37.5080  124.0030 C   0  0  0  0  0  0  0  0  0  0  0  0
   15.6540   38.3420  125.2790 C   0  0  1  0  0  0  0  0  0  0  0  0
   15.8270   37.3940  126.4690 C   0  0  0  0  0  0  0  0  0  0  0  0
   20.2950   38.3690  124.1920 C   0  0  0  0  0  0  0  0  0  0  0  0
   20.0060   36.9750  124.5900 C   0  0  0  0  0  0  0  0  0  0  0  0
   18.9280   32.7820  125.8240 C   0  0  0  0  0  0  0  0  0  0  0  0
   20.1290   32.5630  125.0990 C   0  0  0  0  0  0  0  0  0  0  0  0
   18.4290   34.1090  125.9170 C   0  0  0  0  0  0  0  0  0  0  0  0
   20.8800   33.5870  124.5180 C   0  0  0  0  0  0  0  0  0  0  0  0
   19.1810   35.1570  125.3370 C   0  0  0  0  0  0  0  0  0  0  0  0
   20.3580   34.8570  124.6700 C   0  0  0  0  0  0  0  0  0  0  0  0
   18.9850   36.5240  125.2820 N   0  0  0  0  0  0  0  0  0  0  0  0
   20.8930   36.0160  124.1840 O   0  0  0  0  0  0  0  0  0  0  0  0
   18.2950   31.6000  126.2590 N   0  0  0  0  0  0  0  0  0  0  0  0
   18.3950   31.1760  127.6460 C   0  0  0  0  0  0  0  0  0  0  0  0
   18.4730   30.8330  125.6200 H   0  0  0  0  0  0  0  0  0  0  0  0
   17.1600   34.5160  126.5790 C   0  0  0  0  0  0  0  0  0  0  0  0
   16.1300   34.6240  125.8370 O   0  0  0  0  0  0  0  0  0  0  0  0
   17.2110   34.7500  127.8270 O   0  0  0  0  0  0  0  0  0  0  0  0
   14.4020   40.3380  122.9030 C   0  0  2  0  0  0  0  0  0  0  0  0
   14.0020   40.9650  124.2350 C   0  0  0  0  0  0  0  0  0  0  0  0
   13.3860   39.2300  122.6040 C   0  0  0  0  0  0  0  0  0  0  0  0
   13.0380   39.0010  121.4430 O   0  0  0  0  0  0  0  0  0  0  0  0
   12.8750   38.4260  123.7040 C   0  0  0  0  0  0  0  0  0  0  0  0
   12.6670   38.6990  125.0440 C   0  0  0  0  0  0  0  0  0  0  0  0
   12.4730   37.1220  123.5060 N   0  0  0  0  0  0  0  0  0  0  0  0
   12.1570   37.5290  125.6610 C   0  0  0  0  0  0  0  0  0  0  0  0
   12.0640   36.5650  124.6870 C   0  0  0  0  0  0  0  0  0  0  0  0
   12.5020   36.6590  122.6060 H   0  0  0  0  0  0  0  0  0  0  0  0
  1 15  1  1  0  0  0
  1  2  1  0  0  0  0
  1  6  1  0  0  0  0
  2  3  1  0  0  0  0
  3 13  1  0  0  0  0
  3  4  1  1  0  0  0
  5  4  1  0  0  0  0
  6  5  1  0  0  0  0
  6  7  1  1  0  0  0
  8  3  1  0  0  0  0
  9 31  1  1  0  0  0
  9  8  1  0  0  0  0
 10 11  1  6  0  0  0
 10  9  1  0  0  0  0
 10 12  1  0  0  0  0
 12 13  1  0  0  0  0
 13 14  1  1  0  0  0
 15 16  1  0  0  0  0
 16 23  2  0  0  0  0
 17 19  1  0  0  0  0
 17 25  1  0  0  0  0
 18 17  2  0  0  0  0
 19 28  1  0  0  0  0
 20 22  2  0  0  0  0
 20 18  1  0  0  0  0
 21 19  2  0  0  0  0
 22 21  1  0  0  0  0
 23 21  1  0  0  0  0
 24 16  1  0  0  0  0
 24 22  1  0  0  0  0
 25 26  1  0  0  0  0
 27 25  1  0  0  0  0
 28 30  1  0  0  0  0
 29 28  2  0  0  0  0
 31 32  1  1  0  0  0
 33 31  1  0  0  0  0
 33 35  1  0  0  0  0
 34 33  2  0  0  0  0
 35 36  2  0  0  0  0
 36 38  1  0  0  0  0
 37 35  1  0  0  0  0
 37 39  1  0  0  0  0
 39 38  2  0  0  0  0
 40 37  1  0  0  0  0
M  END
>  <minimizedAffinity>
-8.53824234

>  <CNNscore>
0.20113197

>  <CNNaffinity>
6.67346621

$$$$

 OpenBabel08272609443D

 40 44  0  0  1  0  0  0  0  0999 V2000
   17.7270   36.1710  125.2470 C   0  0  1  0  0  0  0  0  0  0  0  0
   17.0900   37.3910  125.6720 O   0  0  0  0  0  0  0  0  0  0  0  0
   17.2870   38.5010  124.7900 C   0  0  1  0  0  0  0  0  0  0  0  0
   18.7950   38.7910  124.6690 C   0  0  0  0  0  0  0  0  0  0  0  0
   19.5740   37.5420  124.2580 C   0  0  0  0  0  0  0  0  0  0  0  0
   19.2590   36.3570  125.1840 C   0  0  1  0  0  0  0  0  0  0  0  0
   19.9020   36.5620  126.5640 C   0  0  0  0  0  0  0  0  0  0  0  0
   16.8250   38.2050  123.4610 O   0  0  0  0  0  0  0  0  0  0  0  0
   15.4280   38.3970  123.1450 C   0  0  1  0  0  0  0  0  0  0  0  0
   14.5770   38.3410  124.4270 C   0  0  2  0  0  0  0  0  0  0  0  0
   13.0630   38.2890  124.2360 C   0  0  0  0  0  0  0  0  0  0  0  0
   14.9970   39.4320  125.4150 C   0  0  0  0  0  0  0  0  0  0  0  0
   16.5160   39.7100  125.3780 C   0  0  1  0  0  0  0  0  0  0  0  0
   16.9780   40.1420  126.7730 C   0  0  0  0  0  0  0  0  0  0  0  0
   17.2460   35.0720  126.2020 C   0  0  0  0  0  0  0  0  0  0  0  0
   18.1970   33.9470  126.3200 C   0  0  0  0  0  0  0  0  0  0  0  0
   20.9660   30.4310  126.8130 C   0  0  0  0  0  0  0  0  0  0  0  0
   21.3550   30.9200  125.5380 C   0  0  0  0  0  0  0  0  0  0  0  0
   19.9010   31.0860  127.4910 C   0  0  0  0  0  0  0  0  0  0  0  0
   20.7880   32.0450  124.9360 C   0  0  0  0  0  0  0  0  0  0  0  0
   19.3210   32.2290  126.8940 C   0  0  0  0  0  0  0  0  0  0  0  0
   19.7810   32.6540  125.6580 C   0  0  0  0  0  0  0  0  0  0  0  0
   18.3140   33.0830  127.3020 N   0  0  0  0  0  0  0  0  0  0  0  0
   19.0640   33.7540  125.2800 O   0  0  0  0  0  0  0  0  0  0  0  0
   21.6170   29.2410  127.1960 N   0  0  0  0  0  0  0  0  0  0  0  0
   22.5100   28.5570  126.2750 C   0  0  0  0  0  0  0  0  0  0  0  0
   20.9710   28.5970  127.6380 H   0  0  0  0  0  0  0  0  0  0  0  0
   19.3220   30.6760  128.7970 C   0  0  0  0  0  0  0  0  0  0  0  0
   19.8830   31.1310  129.8470 O   0  0  0  0  0  0  0  0  0  0  0  0
   18.3290   29.8820  128.7650 O   0  0  0  0  0  0  0  0  0  0  0  0
   15.3480   39.6540  122.2440 C   0  0  2  0  0  0  0  0  0  0  0  0
   15.3310   41.0020  122.9580 C   0  0  0  0  0  0  0  0  0  0  0  0
   14.0560   39.5620  121.4250 C   0  0  0  0  0  0  0  0  0  0  0  0
   13.7770   38.5260  120.8150 O   0  0  0  0  0  0  0  0  0  0  0  0
   13.1450   40.6960  121.4150 C   0  0  0  0  0  0  0  0  0  0  0  0
   12.0790   41.0480  122.2250 C   0  0  0  0  0  0  0  0  0  0  0  0
   13.2620   41.6950  120.4720 N   0  0  0  0  0  0  0  0  0  0  0  0
   11.5360   42.2640  121.7400 C   0  0  0  0  0  0  0  0  0  0  0  0
   12.2780   42.6310  120.6440 C   0  0  0  0  0  0  0  0  0  0  0  0
   13.9740   41.7040  119.7530 H   0  0  0  0  0  0  0  0  0  0  0  0
  1  2  1  0  0  0  0
  1 15  1  1  0  0  0
  3  4  1  6  0  0  0
  3 13  1  0  0  0  0
  3  2  1  0  0  0  0
  5  4  1  0  0  0  0
  5  6  1  0  0  0  0
  6  1  1  0  0  0  0
  6  7  1  1  0  0  0
  8  3  1  0  0  0  0
  9 31  1  1  0  0  0
  9  8  1  0  0  0  0
  9 10  1  0  0  0  0
 10 11  1  6  0  0  0
 10 12  1  0  0  0  0
 13 12  1  0  0  0  0
 13 14  1  1  0  0  0
 15 16  1  0  0  0  0
 16 23  2  0  0  0  0
 17 25  1  0  0  0  0
 17 19  1  0  0  0  0
 18 17  2  0  0  0  0
 19 28  1  0  0  0  0
 20 18  1  0  0  0  0
 20 22  2  0  0  0  0
 21 23  1  0  0  0  0
 21 19  2  0  0  0  0
 22 21  1  0  0  0  0
 24 22  1  0  0  0  0
 24 16  1  0  0  0  0
 25 27  1  0  0  0  0
 26 25  1  0  0  0  0
 28 29  1  0  0  0  0
 30 28  2  0  0  0  0
 31 32  1  1  0  0  0
 33 31  1  0  0  0  0
 34 33  2  0  0  0  0
 35 33  1  0  0  0  0
 35 36  2  0  0  0  0
 37 39  1  0  0  0  0
 37 35  1  0  0  0  0
 38 36  1  0  0  0  0
 39 38  2  0  0  0  0
 40 37  1  0  0  0  0
M  END
>  <minimizedAffinity>
-8.79708481

>  <CNNscore>
0.192075223

>  <CNNaffinity>
6.76257896

$$$$

 OpenBabel08272609443D

 40 44  0  0  1  0  0  0  0  0999 V2000
   14.3960   39.9180  123.7310 C   0  0  1  0  0  0  0  0  0  0  0  0
   14.2080   41.0310  122.8360 O   0  0  0  0  0  0  0  0  0  0  0  0
   12.9940   40.9840  122.0780 C   0  0  1  0  0  0  0  0  0  0  0  0
   12.9810   39.7030  121.2230 C   0  0  0  0  0  0  0  0  0  0  0  0
   13.2120   38.4570  122.0780 C   0  0  0  0  0  0  0  0  0  0  0  0
   14.4780   38.5950  122.9370 C   0  0  1  0  0  0  0  0  0  0  0  0
   15.7380   38.4910  122.0650 C   0  0  0  0  0  0  0  0  0  0  0  0
   11.8420   40.9110  122.9350 O   0  0  0  0  0  0  0  0  0  0  0  0
   11.2850   42.1340  123.4660 C   0  0  1  0  0  0  0  0  0  0  0  0
   12.3510   43.2440  123.4840 C   0  0  2  0  0  0  0  0  0  0  0  0
   11.9880   44.5240  124.2340 C   0  0  0  0  0  0  0  0  0  0  0  0
   12.8730   43.5310  122.0740 C   0  0  0  0  0  0  0  0  0  0  0  0
   12.9410   42.2600  121.1990 C   0  0  1  0  0  0  0  0  0  0  0  0
   14.0990   42.3990  120.2070 C   0  0  0  0  0  0  0  0  0  0  0  0
   15.6310   40.2440  124.5790 C   0  0  0  0  0  0  0  0  0  0  0  0
   16.4660   39.0590  124.8690 C   0  0  0  0  0  0  0  0  0  0  0  0
   18.8380   35.3360  125.7550 C   0  0  0  0  0  0  0  0  0  0  0  0
   19.8230   36.1610  125.1500 C   0  0  0  0  0  0  0  0  0  0  0  0
   17.5130   35.8380  125.8660 C   0  0  0  0  0  0  0  0  0  0  0  0
   19.5760   37.4620  124.7080 C   0  0  0  0  0  0  0  0  0  0  0  0
   17.2500   37.1570  125.4260 C   0  0  0  0  0  0  0  0  0  0  0  0
   18.2770   37.9030  124.8720 C   0  0  0  0  0  0  0  0  0  0  0  0
   16.1020   37.9260  125.4240 N   0  0  0  0  0  0  0  0  0  0  0  0
   17.7840   39.1240  124.5080 O   0  0  0  0  0  0  0  0  0  0  0  0
   19.2850   34.0340  126.0570 N   0  0  0  0  0  0  0  0  0  0  0  0
   19.7040   33.1320  124.9970 C   0  0  0  0  0  0  0  0  0  0  0  0
   18.6610   33.5760  126.7130 H   0  0  0  0  0  0  0  0  0  0  0  0
   16.3460   35.0960  126.4110 C   0  0  0  0  0  0  0  0  0  0  0  0
   16.4310   34.6870  127.6140 O   0  0  0  0  0  0  0  0  0  0  0  0
   15.3660   34.9020  125.6240 O   0  0  0  0  0  0  0  0  0  0  0  0
    9.9570   42.3800  122.7070 C   0  0  2  0  0  0  0  0  0  0  0  0
    9.7790   43.7570  122.0760 C   0  0  0  0  0  0  0  0  0  0  0  0
    8.8070   42.1880  123.7000 C   0  0  0  0  0  0  0  0  0  0  0  0
    8.3990   41.0550  123.9720 O   0  0  0  0  0  0  0  0  0  0  0  0
    8.2350   43.3560  124.3520 C   0  0  0  0  0  0  0  0  0  0  0  0
    7.0820   44.0860  124.1210 C   0  0  0  0  0  0  0  0  0  0  0  0
    8.8570   43.9460  125.4320 N   0  0  0  0  0  0  0  0  0  0  0  0
    7.0300   45.1440  125.0620 C   0  0  0  0  0  0  0  0  0  0  0  0
    8.1510   45.0420  125.8490 C   0  0  0  0  0  0  0  0  0  0  0  0
    9.7230   43.6080  125.8300 H   0  0  0  0  0  0  0  0  0  0  0  0
  1 15  1  6  0  0  0
  2  1  1  0  0  0  0
  3  4  1  6  0  0  0
  3  2  1  0  0  0  0
  3  8  1  0  0  0  0
  4  5  1  0  0  0  0
  5  6  1  0  0  0  0
  6  7  1  6  0  0  0
  6  1  1  0  0  0  0
  8  9  1  0  0  0  0
  9 31  1  6  0  0  0
  9 10  1  0  0  0  0
 10 11  1  6  0  0  0
 12 10  1  0  0  0  0
 13 14  1  1  0  0  0
 13 12  1  0  0  0  0
 13  3  1  0  0  0  0
 15 16  1  0  0  0  0
 16 23  2  0  0  0  0
 17 19  1  0  0  0  0
 17 25  1  0  0  0  0
 18 17  2  0  0  0  0
 19 28  1  0  0  0  0
 20 22  2  0  0  0  0
 20 18  1  0  0  0  0
 21 19  2  0  0  0  0
 22 21  1  0  0  0  0
 23 21  1  0  0  0  0
 24 16  1  0  0  0  0
 24 22  1  0  0  0  0
 25 27  1  0  0  0  0
 26 25  1  0  0  0  0
 28 29  1  0  0  0  0
 30 28  2  0  0  0  0
 31 32  1  1  0  0  0
 31 33  1  0  0  0  0
 33 34  2  0  0  0  0
 33 35  1  0  0  0  0
 35 37  1  0  0  0  0
 36 35  2  0  0  0  0
 36 38  1  0  0  0  0
 37 40  1  0  0  0  0
 37 39  1  0  0  0  0
 38 39  2  0  0  0  0
M  END
>  <minimizedAffinity>
-9.33722878

>  <CNNscore>
0.162227213

>  <CNNaffinity>
6.17480659

$$$$

 OpenBabel08272609443D

 40 44  0  0  1  0  0  0  0  0999 V2000
   14.6930   37.1620  126.6070 C   0  0  1  0  0  0  0  0  0  0  0  0
   15.4560   37.2640  125.3890 O   0  0  0  0  0  0  0  0  0  0  0  0
   15.4060   38.5510  124.7640 C   0  0  1  0  0  0  0  0  0  0  0  0
   13.9430   38.8880  124.4170 C   0  0  0  0  0  0  0  0  0  0  0  0
   13.0360   38.7710  125.6400 C   0  0  0  0  0  0  0  0  0  0  0  0
   13.1930   37.4040  126.3250 C   0  0  1  0  0  0  0  0  0  0  0  0
   12.5500   36.2960  125.4780 C   0  0  0  0  0  0  0  0  0  0  0  0
   15.8580   39.5860  125.6530 O   0  0  0  0  0  0  0  0  0  0  0  0
   17.2740   39.8570  125.7500 C   0  0  1  0  0  0  0  0  0  0  0  0
   18.0860   38.6220  125.3190 C   0  0  2  0  0  0  0  0  0  0  0  0
   19.5880   38.6670  125.5900 C   0  0  0  0  0  0  0  0  0  0  0  0
   17.7730   38.2350  123.8720 C   0  0  0  0  0  0  0  0  0  0  0  0
   16.2960   38.4920  123.4970 C   0  0  1  0  0  0  0  0  0  0  0  0
   15.8580   37.4560  122.4580 C   0  0  0  0  0  0  0  0  0  0  0  0
   15.0260   35.7950  127.2170 C   0  0  0  0  0  0  0  0  0  0  0  0
   16.2540   35.1920  126.6560 C   0  0  0  0  0  0  0  0  0  0  0  0
   19.9160   33.1710  124.9910 C   0  0  0  0  0  0  0  0  0  0  0  0
   19.9400   34.4120  124.3010 C   0  0  0  0  0  0  0  0  0  0  0  0
   18.8410   32.9180  125.8870 C   0  0  0  0  0  0  0  0  0  0  0  0
   18.9970   35.4230  124.4950 C   0  0  0  0  0  0  0  0  0  0  0  0
   17.8810   33.9350  126.0960 C   0  0  0  0  0  0  0  0  0  0  0  0
   17.9960   35.1280  125.4010 C   0  0  0  0  0  0  0  0  0  0  0  0
   16.7620   34.0080  126.9040 N   0  0  0  0  0  0  0  0  0  0  0  0
   16.9550   35.9400  125.7500 O   0  0  0  0  0  0  0  0  0  0  0  0
   20.9200   32.2680  124.5880 N   0  0  0  0  0  0  0  0  0  0  0  0
   21.5550   31.3880  125.5540 C   0  0  0  0  0  0  0  0  0  0  0  0
   21.6030   32.7230  123.9910 H   0  0  0  0  0  0  0  0  0  0  0  0
   18.6200   31.6570  126.6440 C   0  0  0  0  0  0  0  0  0  0  0  0
   19.1710   31.5660  127.7890 O   0  0  0  0  0  0  0  0  0  0  0  0
   17.9220   30.7580  126.0770 O   0  0  0  0  0  0  0  0  0  0  0  0
   17.5160   41.2050  125.0270 C   0  0  2  0  0  0  0  0  0  0  0  0
   18.5810   41.2100  123.9360 C   0  0  0  0  0  0  0  0  0  0  0  0
   17.9450   42.2310  126.0810 C   0  0  0  0  0  0  0  0  0  0  0  0
   17.3930   43.3330  126.1410 O   0  0  0  0  0  0  0  0  0  0  0  0
   18.9810   41.8700  127.0370 C   0  0  0  0  0  0  0  0  0  0  0  0
   20.3560   42.0230  127.0300 C   0  0  0  0  0  0  0  0  0  0  0  0
   18.6660   41.2560  128.2310 N   0  0  0  0  0  0  0  0  0  0  0  0
   20.8710   41.4680  128.2280 C   0  0  0  0  0  0  0  0  0  0  0  0
   19.8030   40.9860  128.9430 C   0  0  0  0  0  0  0  0  0  0  0  0
   17.7190   41.0330  128.5110 H   0  0  0  0  0  0  0  0  0  0  0  0
  1 15  1  6  0  0  0
  2  1  1  0  0  0  0
  3  4  1  6  0  0  0
  3  2  1  0  0  0  0
  3  8  1  0  0  0  0
  4  5  1  0  0  0  0
  5  6  1  0  0  0  0
  6  7  1  6  0  0  0
  6  1  1  0  0  0  0
  8  9  1  0  0  0  0
  9 31  1  6  0  0  0
 10 11  1  6  0  0  0
 10  9  1  0  0  0  0
 12 10  1  0  0  0  0
 13 14  1  6  0  0  0
 13 12  1  0  0  0  0
 13  3  1  0  0  0  0
 16 23  2  0  0  0  0
 16 15  1  0  0  0  0
 17 19  1  0  0  0  0
 18 20  1  0  0  0  0
 18 17  2  0  0  0  0
 19 21  2  0  0  0  0
 19 28  1  0  0  0  0
 20 22  2  0  0  0  0
 21 23  1  0  0  0  0
 22 24  1  0  0  0  0
 22 21  1  0  0  0  0
 24 16  1  0  0  0  0
 25 17  1  0  0  0  0
 25 26  1  0  0  0  0
 27 25  1  0  0  0  0
 28 29  1  0  0  0  0
 30 28  2  0  0  0  0
 31 32  1  6  0  0  0
 31 33  1  0  0  0  0
 33 34  2  0  0  0  0
 33 35  1  0  0  0  0
 35 37  1  0  0  0  0
 36 35  2  0  0  0  0
 36 38  1  0  0  0  0
 37 40  1  0  0  0  0
 37 39  1  0  0  0  0
 38 39  2  0  0  0  0
M  END
>  <minimizedAffinity>
-10.3537855

>  <CNNscore>
0.152803943

>  <CNNaffinity>
6.47838593

$$$$

 OpenBabel08272609443D

 40 44  0  0  1  0  0  0  0  0999 V2000
   15.1780   39.6900  122.9430 C   0  0  1  0  0  0  0  0  0  0  0  0
   15.0620   40.9110  122.1870 O   0  0  0  0  0  0  0  0  0  0  0  0
   13.7670   41.5180  122.2350 C   0  0  1  0  0  0  0  0  0  0  0  0
   12.7250   40.5320  121.6720 C   0  0  0  0  0  0  0  0  0  0  0  0
   12.7910   39.1820  122.3850 C   0  0  0  0  0  0  0  0  0  0  0  0
   14.2200   38.6170  122.3820 C   0  0  1  0  0  0  0  0  0  0  0  0
   14.6080   38.1340  120.9760 C   0  0  0  0  0  0  0  0  0  0  0  0
   13.3680   41.8000  123.5860 O   0  0  0  0  0  0  0  0  0  0  0  0
   13.8000   43.0330  124.2030 C   0  0  1  0  0  0  0  0  0  0  0  0
   15.0710   43.5600  123.5110 C   0  0  2  0  0  0  0  0  0  0  0  0
   15.7850   44.7230  124.1950 C   0  0  0  0  0  0  0  0  0  0  0  0
   14.8180   43.8320  122.0260 C   0  0  0  0  0  0  0  0  0  0  0  0
   13.8290   42.8230  121.4000 C   0  0  1  0  0  0  0  0  0  0  0  0
   14.1900   42.6200  119.9260 C   0  0  0  0  0  0  0  0  0  0  0  0
   16.6620   39.3070  122.9280 C   0  0  0  0  0  0  0  0  0  0  0  0
   16.9800   38.1770  123.8270 C   0  0  0  0  0  0  0  0  0  0  0  0
   17.7490   34.6820  126.5580 C   0  0  0  0  0  0  0  0  0  0  0  0
   19.0370   34.8900  125.9970 C   0  0  0  0  0  0  0  0  0  0  0  0
   16.6810   35.5130  126.1230 C   0  0  0  0  0  0  0  0  0  0  0  0
   19.3260   35.9040  125.0810 C   0  0  0  0  0  0  0  0  0  0  0  0
   16.9610   36.5470  125.2000 C   0  0  0  0  0  0  0  0  0  0  0  0
   18.2530   36.6970  124.7230 C   0  0  0  0  0  0  0  0  0  0  0  0
   16.1670   37.5170  124.6190 N   0  0  0  0  0  0  0  0  0  0  0  0
   18.2750   37.7380  123.8390 O   0  0  0  0  0  0  0  0  0  0  0  0
   17.6650   33.5570  127.4030 N   0  0  0  0  0  0  0  0  0  0  0  0
   18.6010   32.4540  127.2610 C   0  0  0  0  0  0  0  0  0  0  0  0
   16.7080   33.2280  127.4790 H   0  0  0  0  0  0  0  0  0  0  0  0
   15.2620   35.3990  126.5530 C   0  0  0  0  0  0  0  0  0  0  0  0
   14.4100   35.0880  125.6580 O   0  0  0  0  0  0  0  0  0  0  0  0
   15.0070   35.6490  127.7730 O   0  0  0  0  0  0  0  0  0  0  0  0
   12.5530   43.9490  124.2810 C   0  0  2  0  0  0  0  0  0  0  0  0
   12.2910   44.6270  125.6210 C   0  0  0  0  0  0  0  0  0  0  0  0
   11.3230   43.0930  123.9610 C   0  0  0  0  0  0  0  0  0  0  0  0
   11.0410   42.1180  124.6620 O   0  0  0  0  0  0  0  0  0  0  0  0
   10.4690   43.4740  122.8460 C   0  0  0  0  0  0  0  0  0  0  0  0
   10.0900   42.8160  121.6890 C   0  0  0  0  0  0  0  0  0  0  0  0
    9.8430   44.7030  122.8160 N   0  0  0  0  0  0  0  0  0  0  0  0
    9.2460   43.6780  120.9450 C   0  0  0  0  0  0  0  0  0  0  0  0
    9.1250   44.8440  121.6590 C   0  0  0  0  0  0  0  0  0  0  0  0
    9.9320   45.3930  123.5510 H   0  0  0  0  0  0  0  0  0  0  0  0
  1 15  1  6  0  0  0
  2  3  1  0  0  0  0
  2  1  1  0  0  0  0
  3  4  1  6  0  0  0
  3  8  1  0  0  0  0
  4  5  1  0  0  0  0
  6  7  1  6  0  0  0
  6  5  1  0  0  0  0
  6  1  1  0  0  0  0
  8  9  1  0  0  0  0
  9 31  1  6  0  0  0
 10 11  1  1  0  0  0
 10  9  1  0  0  0  0
 12 10  1  0  0  0  0
 13 14  1  6  0  0  0
 13 12  1  0  0  0  0
 13  3  1  0  0  0  0
 15 16  1  0  0  0  0
 16 24  1  0  0  0  0
 16 23  2  0  0  0  0
 17 25  1  0  0  0  0
 18 17  2  0  0  0  0
 19 28  1  0  0  0  0
 19 17  1  0  0  0  0
 20 18  1  0  0  0  0
 21 19  2  0  0  0  0
 22 20  2  0  0  0  0
 22 21  1  0  0  0  0
 23 21  1  0  0  0  0
 24 22  1  0  0  0  0
 25 27  1  0  0  0  0
 26 25  1  0  0  0  0
 28 30  1  0  0  0  0
 29 28  2  0  0  0  0
 31 32  1  1  0  0  0
 33 31  1  0  0  0  0
 33 34  2  0  0  0  0
 35 33  1  0  0  0  0
 36 35  2  0  0  0  0
 37 35  1  0  0  0  0
 37 40  1  0  0  0  0
 38 39  2  0  0  0  0
 38 36  1  0  0  0  0
 39 37  1  0  0  0  0
M  END
>  <minimizedAffinity>
-9.2343111

>  <CNNscore>
0.1494416

>  <CNNaffinity>
5.6095295

$$$$

 OpenBabel08272609443D

 40 44  0  0  1  0  0  0  0  0999 V2000
   18.4690   39.6530  124.5060 C   0  0  1  0  0  0  0  0  0  0  0  0
   17.3020   38.8640  124.8100 O   0  0  0  0  0  0  0  0  0  0  0  0
   16.1530   39.6270  125.1910 C   0  0  1  0  0  0  0  0  0  0  0  0
   16.4880   40.4510  126.4490 C   0  0  0  0  0  0  0  0  0  0  0  0
   17.7410   41.3000  126.2450 C   0  0  0  0  0  0  0  0  0  0  0  0
   18.9210   40.4480  125.7510 C   0  0  1  0  0  0  0  0  0  0  0  0
   19.4530   39.5530  126.8810 C   0  0  0  0  0  0  0  0  0  0  0  0
   15.7890   40.5750  124.1730 O   0  0  0  0  0  0  0  0  0  0  0  0
   14.9500   40.1410  123.0800 C   0  0  1  0  0  0  0  0  0  0  0  0
   15.0580   38.6170  122.8930 C   0  0  2  0  0  0  0  0  0  0  0  0
   14.4190   38.0390  121.6340 C   0  0  0  0  0  0  0  0  0  0  0  0
   14.6170   37.8750  124.1570 C   0  0  0  0  0  0  0  0  0  0  0  0
   14.9930   38.6320  125.4500 C   0  0  1  0  0  0  0  0  0  0  0  0
   15.2630   37.6160  126.5630 C   0  0  0  0  0  0  0  0  0  0  0  0
   19.5150   38.6840  123.9400 C   0  0  0  0  0  0  0  0  0  0  0  0
   19.3720   37.3070  124.4590 C   0  0  0  0  0  0  0  0  0  0  0  0
   18.7370   33.1420  126.0450 C   0  0  0  0  0  0  0  0  0  0  0  0
   19.9950   33.0100  125.4020 C   0  0  0  0  0  0  0  0  0  0  0  0
   18.0760   34.4000  125.9850 C   0  0  0  0  0  0  0  0  0  0  0  0
   20.6500   34.0630  124.7590 C   0  0  0  0  0  0  0  0  0  0  0  0
   18.7300   35.4760  125.3410 C   0  0  0  0  0  0  0  0  0  0  0  0
   19.9710   35.2660  124.7620 C   0  0  0  0  0  0  0  0  0  0  0  0
   18.3750   36.7970  125.1440 N   0  0  0  0  0  0  0  0  0  0  0  0
   20.3900   36.4340  124.1910 O   0  0  0  0  0  0  0  0  0  0  0  0
   18.2260   31.9350  126.5640 N   0  0  0  0  0  0  0  0  0  0  0  0
   18.4670   31.5650  127.9490 C   0  0  0  0  0  0  0  0  0  0  0  0
   18.4050   31.1610  125.9340 H   0  0  0  0  0  0  0  0  0  0  0  0
   16.7320   34.7030  126.5440 C   0  0  0  0  0  0  0  0  0  0  0  0
   16.6320   34.7540  127.8130 O   0  0  0  0  0  0  0  0  0  0  0  0
   15.7830   34.8600  125.7130 O   0  0  0  0  0  0  0  0  0  0  0  0
   13.5550   40.7710  123.3180 C   0  0  2  0  0  0  0  0  0  0  0  0
   12.5650   39.9440  124.1310 C   0  0  0  0  0  0  0  0  0  0  0  0
   12.9150   41.0230  121.9490 C   0  0  0  0  0  0  0  0  0  0  0  0
   11.8760   40.4380  121.6290 O   0  0  0  0  0  0  0  0  0  0  0  0
   13.5240   41.9930  121.0530 C   0  0  0  0  0  0  0  0  0  0  0  0
   14.5510   42.9060  121.2200 C   0  0  0  0  0  0  0  0  0  0  0  0
   13.0960   42.1260  119.7480 N   0  0  0  0  0  0  0  0  0  0  0  0
   14.7190   43.6130  120.0030 C   0  0  0  0  0  0  0  0  0  0  0  0
   13.7930   43.1200  119.1160 C   0  0  0  0  0  0  0  0  0  0  0  0
   12.3560   41.5660  119.3440 H   0  0  0  0  0  0  0  0  0  0  0  0
  1 15  1  1  0  0  0
  1  2  1  0  0  0  0
  1  6  1  0  0  0  0
  2  3  1  0  0  0  0
  3 13  1  0  0  0  0
  3  4  1  1  0  0  0
  5  4  1  0  0  0  0
  6  5  1  0  0  0  0
  6  7  1  1  0  0  0
  8  3  1  0  0  0  0
  9 31  1  1  0  0  0
  9  8  1  0  0  0  0
 10 11  1  6  0  0  0
 10  9  1  0  0  0  0
 10 12  1  0  0  0  0
 12 13  1  0  0  0  0
 13 14  1  1  0  0  0
 15 16  1  0  0  0  0
 16 23  2  0  0  0  0
 17 25  1  0  0  0  0
 18 17  2  0  0  0  0
 19 17  1  0  0  0  0
 19 28  1  0  0  0  0
 20 22  2  0  0  0  0
 20 18  1  0  0  0  0
 21 19  2  0  0  0  0
 22 21  1  0  0  0  0
 23 21  1  0  0  0  0
 24 16  1  0  0  0  0
 24 22  1  0  0  0  0
 25 26  1  0  0  0  0
 27 25  1  0  0  0  0
 28 29  1  0  0  0  0
 30 28  2  0  0  0  0
 31 32  1  1  0  0  0
 33 31  1  0  0  0  0
 34 33  2  0  0  0  0
 35 36  2  0  0  0  0
 35 33  1  0  0  0  0
 37 35  1  0  0  0  0
 38 36  1  0  0  0  0
 39 37  1  0  0  0  0
 39 38  2  0  0  0  0
 40 37  1  0  0  0  0
M  END
>  <minimizedAffinity>
-9.91017151

>  <CNNscore>
0.135498822

>  <CNNaffinity>
6.66318083

$$$$
