MZQZJZKJAMRPKS-UHFFFAOYSA-N
     RDKit          3D

 35 38  0  0  0  0  0  0  0  0999 V2000
  133.2250  -14.6230  162.3120 C   0  0  0  0  0  0  0  0  0  0  0  0
  131.8110  -14.9410  162.7220 C   0  0  0  0  0  0  0  0  0  0  0  0
  130.8360  -14.0290  162.5480 C   0  0  0  0  0  0  0  0  0  0  0  0
  129.4890  -14.2740  162.9950 C   0  0  0  0  0  0  0  0  0  0  0  0
  129.1860  -15.4360  163.5800 C   0  0  0  0  0  0  0  0  0  0  0  0
  127.8740  -15.5530  164.1170 N   0  0  0  0  0  0  0  0  0  0  0  0
  126.7000  -16.1080  163.0330 S   0  0  0  0  0  0  0  0  0  0  0  0
  125.8270  -16.9360  163.8430 O   0  0  0  0  0  0  0  0  0  0  0  0
  127.3380  -16.6970  161.8710 O   0  0  0  0  0  0  0  0  0  0  0  0
  125.8000  -14.6190  162.5490 C   0  0  0  0  0  0  0  0  0  0  0  0
  125.4340  -13.7980  163.7650 C   0  0  0  0  0  0  0  0  0  0  0  0
  124.5010  -14.3230  164.6810 C   0  0  0  0  0  0  0  0  0  0  0  0
  124.1370  -13.6090  165.8230 C   0  0  0  0  0  0  0  0  0  0  0  0
  124.7040  -12.3630  166.0590 C   0  0  0  0  0  0  0  0  0  0  0  0
  124.3630  -11.6790  167.1580 F   0  0  0  0  0  0  0  0  0  0  0  0
  125.6220  -11.8180  165.1740 C   0  0  0  0  0  0  0  0  0  0  0  0
  125.9860  -12.5310  164.0280 C   0  0  0  0  0  0  0  0  0  0  0  0
  127.1210  -11.7790  162.9670 Cl  0  0  0  0  0  0  0  0  0  0  0  0
  130.2090  -16.5320  163.6800 C   0  0  0  0  0  0  0  0  0  0  0  0
  129.9030  -17.6400  164.1170 O   0  0  0  0  0  0  0  0  0  0  0  0
  131.5080  -16.1880  163.2860 N   0  0  0  0  0  0  0  0  0  0  0  0
  132.5490  -17.1990  163.5080 C   0  0  0  0  0  0  0  0  0  0  0  0
  132.9790  -17.3150  164.9760 C   0  0  0  0  0  0  0  0  0  0  0  0
  133.3220  -16.3220  165.6180 O   0  0  0  0  0  0  0  0  0  0  0  0
  133.0850  -18.5910  165.4860 N   0  0  0  0  0  0  0  0  0  0  0  0
  133.5260  -18.8500  166.8530 C   0  0  2  0  0  0  0  0  0  0  0  0
  135.0510  -19.0990  166.8870 C   0  0  0  0  0  0  0  0  0  0  0  0
  135.5770  -19.2680  168.3220 C   0  0  0  0  0  0  0  0  0  0  0  0
  134.6980  -20.1760  169.1120 C   0  0  0  0  0  0  0  0  0  0  0  0
  135.1170  -20.7340  170.2990 N   0  0  0  0  0  0  0  0  0  0  0  0
  134.1550  -21.4710  170.8020 C   0  0  0  0  0  0  0  0  0  0  0  0
  134.2720  -22.1400  171.9520 N   0  0  0  0  0  0  0  0  0  0  0  0
  132.7030  -21.5320  169.8760 S   0  0  0  0  0  0  0  0  0  0  0  0
  133.4120  -20.4960  168.7300 C   0  0  0  0  0  0  0  0  0  0  0  0
  132.7410  -20.0350  167.4820 C   0  0  0  0  0  0  0  0  0  0  0  0
  1  2  1  0
  2  3  2  0
  3  4  1  0
  4  5  2  0
  5  6  1  0
  6  7  1  0
  7  8  2  0
  7  9  2  0
  7 10  1  0
 10 11  1  0
 11 12  2  0
 12 13  1  0
 13 14  2  0
 14 15  1  0
 14 16  1  0
 16 17  2  0
 17 18  1  0
  5 19  1  0
 19 20  2  0
 19 21  1  0
 21 22  1  0
 22 23  1  0
 23 24  2  0
 23 25  1  0
 26 25  1  6
 26 27  1  0
 27 28  1  0
 28 29  1  0
 29 30  1  0
 30 31  2  0
 31 32  1  0
 31 33  1  0
 33 34  1  0
 34 35  1  0
 21  2  1  0
 35 26  1  0
 17 11  1  0
 34 29  2  0
M  END
$$$$
