YDNAXUMKGRAZTP-UHFFFAOYSA-N
     RDKit          3D

 34 37  0  0  0  0  0  0  0  0999 V2000
  -12.1300   -7.6600  -26.3650 C   0  0  0  0  0  0  0  0  0  0  0  0
  -11.0810   -8.1230  -27.3360 C   0  0  0  0  0  0  0  0  0  0  0  0
  -11.4720   -8.6110  -28.5980 C   0  0  0  0  0  0  0  0  0  0  0  0
  -10.5150   -9.0660  -29.5400 C   0  0  0  0  0  0  0  0  0  0  0  0
  -10.6880   -9.6090  -30.8750 C   0  0  0  0  0  0  0  0  0  0  0  0
  -12.0170   -9.8000  -31.5580 C   0  0  0  0  0  0  0  0  0  0  0  0
  -12.7550  -11.0200  -31.0480 C   0  0  0  0  0  0  0  0  0  0  0  0
  -13.7400  -11.0620  -30.3320 O   0  0  0  0  0  0  0  0  0  0  0  0
  -12.1880  -12.1780  -31.4700 O   0  0  0  0  0  0  0  0  0  0  0  0
   -9.4720   -9.9460  -31.4380 C   0  0  0  0  0  0  0  0  0  0  0  0
   -8.1510   -9.6290  -30.4120 S   0  0  0  0  0  0  0  0  0  0  0  0
   -9.1710   -9.0240  -29.1650 C   0  0  0  0  0  0  0  0  0  0  0  0
   -8.7600   -8.5390  -27.9040 C   0  0  0  0  0  0  0  0  0  0  0  0
   -9.7220   -8.0640  -27.0080 C   0  0  0  0  0  0  0  0  0  0  0  0
   -9.4300   -7.5340  -25.7750 O   0  0  0  0  0  0  0  0  0  0  0  0
   -8.5330   -8.2720  -24.9420 C   0  0  0  0  0  0  0  0  0  0  0  0
   -9.2610   -8.6760  -23.6770 C   0  0  0  0  0  0  0  0  0  0  0  0
  -10.6690   -8.7380  -23.6920 C   0  0  0  0  0  0  0  0  0  0  0  0
  -11.3800   -9.1270  -22.5570 C   0  0  0  0  0  0  0  0  0  0  0  0
  -10.6970   -9.4610  -21.3910 C   0  0  0  0  0  0  0  0  0  0  0  0
   -9.3010   -9.3990  -21.3550 C   0  0  0  0  0  0  0  0  0  0  0  0
   -8.5660   -9.0060  -22.4870 C   0  0  0  0  0  0  0  0  0  0  0  0
   -7.0550   -8.9150  -22.3870 C   0  0  0  0  0  0  0  0  0  0  0  0
   -6.6980   -8.5480  -21.0650 O   0  0  0  0  0  0  0  0  0  0  0  0
   -6.2390   -7.2700  -20.8710 C   0  0  0  0  0  0  0  0  0  0  0  0
   -4.8490   -7.1600  -20.7060 C   0  0  0  0  0  0  0  0  0  0  0  0
   -4.2400   -5.9130  -20.4930 C   0  0  0  0  0  0  0  0  0  0  0  0
   -5.0160   -4.7510  -20.4410 C   0  0  0  0  0  0  0  0  0  0  0  0
   -4.3730   -3.3990  -20.2200 C   0  0  0  0  0  0  0  0  0  0  0  0
   -4.6670   -2.8660  -18.9990 F   0  0  0  0  0  0  0  0  0  0  0  0
   -4.7750   -2.4720  -21.1380 F   0  0  0  0  0  0  0  0  0  0  0  0
   -3.0120   -3.4270  -20.2830 F   0  0  0  0  0  0  0  0  0  0  0  0
   -6.4090   -4.8660  -20.6190 C   0  0  0  0  0  0  0  0  0  0  0  0
   -7.0180   -6.1170  -20.8290 C   0  0  0  0  0  0  0  0  0  0  0  0
  1  2  1  0
  2  3  2  0
  3  4  1  0
  4  5  1  0
  5  6  1  0
  6  7  1  0
  7  8  2  0
  7  9  1  0
  5 10  2  0
 10 11  1  0
 11 12  1  0
 12 13  1  0
 13 14  2  0
 14 15  1  0
 15 16  1  0
 16 17  1  0
 17 18  2  0
 18 19  1  0
 19 20  2  0
 20 21  1  0
 21 22  2  0
 22 23  1  0
 23 24  1  0
 24 25  1  0
 25 26  2  0
 26 27  1  0
 27 28  2  0
 28 29  1  0
 29 30  1  0
 29 31  1  0
 29 32  1  0
 28 33  1  0
 33 34  2  0
 14  2  1  0
 22 17  1  0
 34 25  1  0
 12  4  2  0
M  END
$$$$
