NXCAPWDBSDFCJW-UHFFFAOYSA-N
     RDKit          3D

 43 47  0  0  0  0  0  0  0  0999 V2000
   -8.0100   -8.0570  -21.5310 C   0  0  0  0  0  0  0  0  0  0  0  0
   -8.8560   -9.1310  -22.2500 C   0  0  0  0  0  0  0  0  0  0  0  0
   -9.9510   -9.6420  -21.2900 C   0  0  0  0  0  0  0  0  0  0  0  0
   -7.9180  -10.3220  -22.5500 C   0  0  0  0  0  0  0  0  0  0  0  0
   -9.5140   -8.5250  -23.5020 C   0  0  0  0  0  0  0  0  0  0  0  0
  -10.9000   -8.6680  -23.7110 C   0  0  0  0  0  0  0  0  0  0  0  0
  -11.5320   -8.1350  -24.8400 C   0  0  0  0  0  0  0  0  0  0  0  0
  -10.7840   -7.4490  -25.7980 C   0  0  0  0  0  0  0  0  0  0  0  0
  -11.4210   -6.9180  -26.9590 N   0  0  0  0  0  0  0  0  0  0  0  0
  -11.0570   -7.1730  -28.2760 C   0  0  0  0  0  0  0  0  0  0  0  0
  -10.1140   -8.1500  -28.7360 C   0  0  0  0  0  0  0  0  0  0  0  0
   -8.8950   -8.0930  -28.7030 O   0  0  0  0  0  0  0  0  0  0  0  0
  -10.7290   -9.2050  -29.3070 O   0  0  0  0  0  0  0  0  0  0  0  0
  -11.8040   -6.3320  -29.0770 C   0  0  0  0  0  0  0  0  0  0  0  0
  -11.6760   -6.3300  -30.4250 O   0  0  0  0  0  0  0  0  0  0  0  0
  -10.7560   -5.5200  -31.0470 C   0  0  0  0  0  0  0  0  0  0  0  0
   -9.7460   -6.1480  -31.7760 C   0  0  0  0  0  0  0  0  0  0  0  0
   -8.7730   -5.3820  -32.4160 C   0  0  0  0  0  0  0  0  0  0  0  0
   -8.8020   -3.9900  -32.3140 C   0  0  0  0  0  0  0  0  0  0  0  0
   -9.8030   -3.3480  -31.5680 C   0  0  0  0  0  0  0  0  0  0  0  0
   -9.8240   -1.8470  -31.4250 C   0  0  0  0  0  0  0  0  0  0  0  0
  -10.9260   -1.3840  -30.7690 F   0  0  0  0  0  0  0  0  0  0  0  0
   -8.7550   -1.3660  -30.7310 F   0  0  0  0  0  0  0  0  0  0  0  0
   -9.8090   -1.2080  -32.6260 F   0  0  0  0  0  0  0  0  0  0  0  0
  -10.7740   -4.1300  -30.9200 C   0  0  0  0  0  0  0  0  0  0  0  0
  -12.7390   -5.6320  -28.2720 C   0  0  0  0  0  0  0  0  0  0  0  0
  -13.7850   -4.7220  -28.5430 C   0  0  0  0  0  0  0  0  0  0  0  0
  -14.5080   -4.1740  -27.4820 C   0  0  0  0  0  0  0  0  0  0  0  0
  -15.5080   -3.2730  -27.7470 O   0  0  0  0  0  0  0  0  0  0  0  0
  -15.3070   -1.9860  -27.4520 C   0  0  0  0  0  0  0  0  0  0  0  0
  -14.9700   -1.3040  -26.2990 C   0  0  0  0  0  0  0  0  0  0  0  0
  -14.8900    0.0890  -26.6040 C   0  0  0  0  0  0  0  0  0  0  0  0
  -14.5530    1.1860  -25.6490 C   0  0  0  0  0  0  0  0  0  0  0  0
  -14.9220    0.8910  -24.3760 F   0  0  0  0  0  0  0  0  0  0  0  0
  -13.2180    1.4360  -25.6240 F   0  0  0  0  0  0  0  0  0  0  0  0
  -15.1660    2.3530  -25.9740 F   0  0  0  0  0  0  0  0  0  0  0  0
  -15.1940    0.2000  -27.9530 C   0  0  0  0  0  0  0  0  0  0  0  0
  -15.4470   -1.0530  -28.4460 N   0  0  0  0  0  0  0  0  0  0  0  0
  -14.1930   -4.4770  -26.1660 C   0  0  0  0  0  0  0  0  0  0  0  0
  -13.1700   -5.3840  -25.8770 C   0  0  0  0  0  0  0  0  0  0  0  0
  -12.4740   -5.9930  -26.9440 C   0  0  0  0  0  0  0  0  0  0  0  0
   -9.4100   -7.2900  -25.6120 C   0  0  0  0  0  0  0  0  0  0  0  0
   -8.7860   -7.8200  -24.4750 C   0  0  0  0  0  0  0  0  0  0  0  0
  1  2  1  0
  2  3  1  0
  2  4  1  0
  2  5  1  0
  5  6  2  0
  6  7  1  0
  7  8  2  0
  8  9  1  0
  9 10  1  0
 10 11  1  0
 11 12  2  0
 11 13  1  0
 10 14  2  0
 14 15  1  0
 15 16  1  0
 16 17  2  0
 17 18  1  0
 18 19  2  0
 19 20  1  0
 20 21  1  0
 21 22  1  0
 21 23  1  0
 21 24  1  0
 20 25  2  0
 14 26  1  0
 26 27  2  0
 27 28  1  0
 28 29  1  0
 29 30  1  0
 30 31  2  0
 31 32  1  0
 32 33  1  0
 33 34  1  0
 33 35  1  0
 33 36  1  0
 32 37  2  0
 37 38  1  0
 28 39  2  0
 39 40  1  0
 40 41  2  0
  8 42  1  0
 42 43  2  0
 43  5  1  0
 41  9  1  0
 25 16  1  0
 41 26  1  0
 38 30  1  0
M  END
$$$$
