
 OpenBabel08262619083D

 33 35  0  0  1  0  0  0  0  0999 V2000
  100.5190  101.1700  106.8570 C   0  0  0  0  0  0  0  0  0  0  0  0
  101.2910  102.3100  106.4740 O   0  0  0  0  0  0  0  0  0  0  0  0
  100.5860  103.4520  106.3320 C   0  0  0  0  0  0  0  0  0  0  0  0
   99.9740  104.0970  107.1590 O   0  0  0  0  0  0  0  0  0  0  0  0
  100.7600  104.0900  105.0320 N   0  0  0  0  0  4  0  0  0  0  0  0
  100.4320  105.5400  105.1630 C   0  0  0  0  0  0  0  0  0  0  0  0
  100.0150  103.6660  104.4850 H   0  0  0  0  0  0  0  0  0  0  0  0
  102.0980  103.8330  104.4420 C   0  0  0  0  0  0  0  0  0  0  0  0
  102.7400  105.0920  103.8550 C   0  0  0  0  0  0  0  0  0  0  0  0
  103.2940  104.9070  102.4500 C   0  0  0  0  0  0  0  0  0  0  0  0
  101.3220   99.9480  106.6010 C   0  0  0  0  0  0  0  0  0  0  0  0
  101.3710   99.1200  105.4890 C   0  0  0  0  0  0  0  0  0  0  0  0
  102.2870   99.4220  107.4140 N   0  0  0  0  0  0  0  0  0  0  0  0
  102.3120   98.1530  105.6630 N   0  0  0  0  0  0  0  0  0  0  0  0
  102.8660   98.3400  106.8550 N   0  0  0  0  0  0  0  0  0  0  0  0
  102.7620   99.8930  108.6900 C   0  0  0  0  0  0  0  0  0  0  0  0
  100.5800   99.3580  104.3030 C   0  0  0  0  0  0  0  0  0  0  0  0
  100.6430  100.6170  103.7150 C   0  0  0  0  0  0  0  0  0  0  0  0
   99.5600   98.4880  104.1100 N   0  0  0  0  0  0  0  0  0  0  0  0
   99.5150  101.0810  103.0530 C   0  0  0  0  0  0  0  0  0  0  0  0
   98.4760   98.9450  103.4290 C   0  0  0  0  0  0  0  0  0  0  0  0
   98.3820  100.2700  103.0090 C   0  0  0  0  0  0  0  0  0  0  0  0
   97.3450   97.9810  103.2420 C   0  0  0  0  0  0  0  0  0  0  0  0
   97.1790  100.8050  102.6290 O   0  0  0  0  0  0  0  0  0  0  0  0
   96.5970  101.5460  103.7330 C   0  0  1  0  0  0  0  0  0  0  0  0
   96.2060  100.5490  104.8310 C   0  0  0  0  0  0  0  0  0  0  0  0
   97.5990  102.5660  104.2820 C   0  0  0  0  0  0  0  0  0  0  0  0
   95.9830  101.2050  106.1960 C   0  0  0  0  0  0  0  0  0  0  0  0
   97.0180  103.3830  105.4460 C   0  0  2  0  0  0  0  0  0  0  0  0
   95.8070  102.7180  106.1090 C   0  0  0  0  0  0  0  0  0  0  0  0
   96.6250  104.7830  104.9650 C   0  0  0  0  0  0  0  0  0  0  0  0
   97.0350  105.7420  105.6810 O   0  0  0  0  0  0  0  0  0  0  0  0
   95.9980  104.8760  103.8680 O   0  0  0  0  0  0  0  0  0  0  0  0
  2  1  1  0  0  0  0
  3  2  1  0  0  0  0
  3  4  2  0  0  0  0
  5  6  1  0  0  0  0
  5  3  1  0  0  0  0
  7  5  1  0  0  0  0
  8  5  1  0  0  0  0
  9  8  1  0  0  0  0
 10  9  1  0  0  0  0
 11  1  1  0  0  0  0
 11 13  1  0  0  0  0
 12 14  1  0  0  0  0
 12 11  2  0  0  0  0
 13 16  1  0  0  0  0
 14 15  2  0  0  0  0
 15 13  1  0  0  0  0
 17 12  1  0  0  0  0
 18 17  2  0  0  0  0
 19 17  1  0  0  0  0
 20 18  1  0  0  0  0
 21 19  2  0  0  0  0
 22 20  2  0  0  0  0
 22 21  1  0  0  0  0
 23 21  1  0  0  0  0
 24 22  1  0  0  0  0
 25 24  1  6  0  0  0
 25 27  1  0  0  0  0
 25 26  1  0  0  0  0
 26 28  1  0  0  0  0
 27 29  1  0  0  0  0
 29 31  1  6  0  0  0
 29 30  1  0  0  0  0
 30 28  1  0  0  0  0
 31 32  1  0  0  0  0
 33 31  2  0  0  0  0
M  END
>  <minimizedAffinity>
-7.61592245

>  <CNNscore>
0.830628335

>  <CNNaffinity>
7.23662901

$$$$

 OpenBabel08262619083D

 33 35  0  0  1  0  0  0  0  0999 V2000
  100.7740  101.0600  107.6960 C   0  0  0  0  0  0  0  0  0  0  0  0
  101.5890  102.2020  107.4260 O   0  0  0  0  0  0  0  0  0  0  0  0
  101.1130  103.0260  106.4690 C   0  0  0  0  0  0  0  0  0  0  0  0
  101.3190  103.0310  105.2730 O   0  0  0  0  0  0  0  0  0  0  0  0
  100.0470  103.9060  106.9330 N   0  0  0  0  0  4  0  0  0  0  0  0
   99.9330  105.0580  105.9900 C   0  0  0  0  0  0  0  0  0  0  0  0
  100.4320  104.2710  107.8000 H   0  0  0  0  0  0  0  0  0  0  0  0
   98.7650  103.1890  107.1540 C   0  0  0  0  0  0  0  0  0  0  0  0
   98.0860  103.5750  108.4700 C   0  0  0  0  0  0  0  0  0  0  0  0
   98.9250  104.4840  109.3560 C   0  0  0  0  0  0  0  0  0  0  0  0
  101.3840   99.8770  107.0380 C   0  0  0  0  0  0  0  0  0  0  0  0
  101.2500   99.4000  105.7420 C   0  0  0  0  0  0  0  0  0  0  0  0
  102.3170   99.0350  107.5770 N   0  0  0  0  0  0  0  0  0  0  0  0
  102.0580   98.3220  105.5520 N   0  0  0  0  0  0  0  0  0  0  0  0
  102.7050   98.0980  106.6900 N   0  0  0  0  0  0  0  0  0  0  0  0
  102.9290   99.0670  108.8800 C   0  0  0  0  0  0  0  0  0  0  0  0
  100.4270  100.0530  104.7510 C   0  0  0  0  0  0  0  0  0  0  0  0
   99.0680  100.1940  105.0170 C   0  0  0  0  0  0  0  0  0  0  0  0
  100.9580  100.1030  103.5060 N   0  0  0  0  0  0  0  0  0  0  0  0
   98.1930  100.1920  103.9400 C   0  0  0  0  0  0  0  0  0  0  0  0
  100.0890  100.1370  102.4620 C   0  0  0  0  0  0  0  0  0  0  0  0
   98.7110  100.0510  102.6540 C   0  0  0  0  0  0  0  0  0  0  0  0
  100.6880  100.1690  101.0890 C   0  0  0  0  0  0  0  0  0  0  0  0
   97.8730   99.7530  101.6120 O   0  0  0  0  0  0  0  0  0  0  0  0
   96.5090  100.1100  101.9580 C   0  0  1  0  0  0  0  0  0  0  0  0
   95.9330   99.0050  102.8520 C   0  0  0  0  0  0  0  0  0  0  0  0
   96.4760  101.4520  102.6950 C   0  0  0  0  0  0  0  0  0  0  0  0
   94.6870   99.4390  103.6280 C   0  0  0  0  0  0  0  0  0  0  0  0
   95.0470  101.8750  103.0680 C   0  0  2  0  0  0  0  0  0  0  0  0
   94.0510  100.7100  103.0720 C   0  0  0  0  0  0  0  0  0  0  0  0
   94.5490  102.9610  102.1110 C   0  0  0  0  0  0  0  0  0  0  0  0
   95.2150  103.0970  101.0440 O   0  0  0  0  0  0  0  0  0  0  0  0
   93.4830  103.5740  102.4160 O   0  0  0  0  0  0  0  0  0  0  0  0
  2  1  1  0  0  0  0
  3  5  1  0  0  0  0
  3  2  1  0  0  0  0
  4  3  2  0  0  0  0
  5  8  1  0  0  0  0
  5  7  1  0  0  0  0
  6  5  1  0  0  0  0
  8  9  1  0  0  0  0
  9 10  1  0  0  0  0
 11 13  1  0  0  0  0
 11  1  1  0  0  0  0
 12 11  2  0  0  0  0
 13 16  1  0  0  0  0
 14 12  1  0  0  0  0
 14 15  2  0  0  0  0
 15 13  1  0  0  0  0
 17 18  1  0  0  0  0
 17 12  1  0  0  0  0
 19 17  2  0  0  0  0
 20 18  2  0  0  0  0
 21 22  2  0  0  0  0
 21 19  1  0  0  0  0
 22 20  1  0  0  0  0
 23 21  1  0  0  0  0
 24 22  1  0  0  0  0
 25 24  1  1  0  0  0
 25 27  1  0  0  0  0
 25 26  1  0  0  0  0
 26 28  1  0  0  0  0
 27 29  1  0  0  0  0
 29 31  1  6  0  0  0
 29 30  1  0  0  0  0
 30 28  1  0  0  0  0
 31 33  1  0  0  0  0
 32 31  2  0  0  0  0
M  END
>  <minimizedAffinity>
-7.90391874

>  <CNNscore>
0.825720191

>  <CNNaffinity>
7.61632299

$$$$

 OpenBabel08262619083D

 33 35  0  0  1  0  0  0  0  0999 V2000
   99.6390  101.5990  104.4390 C   0  0  0  0  0  0  0  0  0  0  0  0
   99.7940  100.6190  105.4670 O   0  0  0  0  0  0  0  0  0  0  0  0
  100.5160  101.0240  106.5330 C   0  0  0  0  0  0  0  0  0  0  0  0
  100.1470  101.4980  107.5880 O   0  0  0  0  0  0  0  0  0  0  0  0
  101.9230  100.6470  106.4640 N   0  0  0  0  0  4  0  0  0  0  0  0
  102.7530  101.8250  106.8540 C   0  0  0  0  0  0  0  0  0  0  0  0
  102.0580  100.5070  105.4660 H   0  0  0  0  0  0  0  0  0  0  0  0
  102.2280   99.4200  107.2420 C   0  0  0  0  0  0  0  0  0  0  0  0
  103.4490   99.5800  108.1500 C   0  0  0  0  0  0  0  0  0  0  0  0
  103.3060   98.9040  109.5060 C   0  0  0  0  0  0  0  0  0  0  0  0
   98.9750  100.9610  103.2740 C   0  0  0  0  0  0  0  0  0  0  0  0
   97.6660  101.0510  102.8240 C   0  0  0  0  0  0  0  0  0  0  0  0
   99.5730  100.1940  102.3140 N   0  0  0  0  0  0  0  0  0  0  0  0
   97.5160  100.3530  101.6660 N   0  0  0  0  0  0  0  0  0  0  0  0
   98.6940   99.8200  101.3630 N   0  0  0  0  0  0  0  0  0  0  0  0
  100.9560   99.8100  102.1840 C   0  0  0  0  0  0  0  0  0  0  0  0
   96.6680  101.8640  103.4820 C   0  0  0  0  0  0  0  0  0  0  0  0
   96.3870  103.1170  102.9460 C   0  0  0  0  0  0  0  0  0  0  0  0
   96.3960  101.5160  104.7620 N   0  0  0  0  0  0  0  0  0  0  0  0
   95.9880  104.1200  103.8180 C   0  0  0  0  0  0  0  0  0  0  0  0
   95.9710  102.5000  105.5960 C   0  0  0  0  0  0  0  0  0  0  0  0
   95.8860  103.8270  105.1780 C   0  0  0  0  0  0  0  0  0  0  0  0
   95.6960  102.1080  107.0150 C   0  0  0  0  0  0  0  0  0  0  0  0
   95.7840  104.8470  106.0870 O   0  0  0  0  0  0  0  0  0  0  0  0
   97.0910  105.4310  106.3230 C   0  0  1  0  0  0  0  0  0  0  0  0
   97.1370  105.9410  107.7690 C   0  0  0  0  0  0  0  0  0  0  0  0
   98.1930  104.3910  106.0990 C   0  0  0  0  0  0  0  0  0  0  0  0
   98.5590  106.1860  108.2830 C   0  0  0  0  0  0  0  0  0  0  0  0
   99.5970  104.9720  106.3260 C   0  0  2  0  0  0  0  0  0  0  0  0
   99.5930  106.2560  107.1630 C   0  0  0  0  0  0  0  0  0  0  0  0
  100.2800  105.2470  104.9840 C   0  0  0  0  0  0  0  0  0  0  0  0
  101.1800  104.4230  104.6490 O   0  0  0  0  0  0  0  0  0  0  0  0
   99.8480  106.2130  104.2880 O   0  0  0  0  0  0  0  0  0  0  0  0
  1  2  1  0  0  0  0
  2  3  1  0  0  0  0
  3  4  2  0  0  0  0
  5  3  1  0  0  0  0
  5  6  1  0  0  0  0
  5  8  1  0  0  0  0
  7  5  1  0  0  0  0
  8  9  1  0  0  0  0
  9 10  1  0  0  0  0
 11  1  1  0  0  0  0
 12 11  2  0  0  0  0
 12 17  1  0  0  0  0
 13 11  1  0  0  0  0
 14 12  1  0  0  0  0
 15 14  2  0  0  0  0
 15 13  1  0  0  0  0
 16 13  1  0  0  0  0
 17 19  1  0  0  0  0
 18 17  2  0  0  0  0
 18 20  1  0  0  0  0
 19 21  2  0  0  0  0
 20 22  2  0  0  0  0
 21 23  1  0  0  0  0
 22 21  1  0  0  0  0
 22 24  1  0  0  0  0
 25 24  1  1  0  0  0
 25 26  1  0  0  0  0
 26 28  1  0  0  0  0
 27 25  1  0  0  0  0
 27 29  1  0  0  0  0
 29 31  1  6  0  0  0
 29 30  1  0  0  0  0
 30 28  1  0  0  0  0
 32 31  1  0  0  0  0
 33 31  2  0  0  0  0
M  END
>  <minimizedAffinity>
-7.64815617

>  <CNNscore>
0.767681837

>  <CNNaffinity>
6.96058798

$$$$

 OpenBabel08262619083D

 33 35  0  0  1  0  0  0  0  0999 V2000
  101.0970  101.1530  107.7840 C   0  0  0  0  0  0  0  0  0  0  0  0
  101.4440  102.2640  106.9570 O   0  0  0  0  0  0  0  0  0  0  0  0
  100.5490  103.2750  106.9580 C   0  0  0  0  0  0  0  0  0  0  0  0
   99.7820  103.6340  107.8270 O   0  0  0  0  0  0  0  0  0  0  0  0
  100.6770  104.1700  105.8130 N   0  0  0  0  0  4  0  0  0  0  0  0
  101.5510  103.5180  104.7930 C   0  0  0  0  0  0  0  0  0  0  0  0
  101.2060  104.9440  106.2050 H   0  0  0  0  0  0  0  0  0  0  0  0
   99.3630  104.6090  105.2780 C   0  0  0  0  0  0  0  0  0  0  0  0
   99.2890  106.1210  105.0510 C   0  0  0  0  0  0  0  0  0  0  0  0
  100.0330  106.9400  106.0940 C   0  0  0  0  0  0  0  0  0  0  0  0
  101.6300   99.9150  107.1600 C   0  0  0  0  0  0  0  0  0  0  0  0
  101.4240   99.3850  105.8940 C   0  0  0  0  0  0  0  0  0  0  0  0
  102.5470   99.0580  107.7020 N   0  0  0  0  0  0  0  0  0  0  0  0
  102.1780   98.2650  105.7240 N   0  0  0  0  0  0  0  0  0  0  0  0
  102.8600   98.0660  106.8460 N   0  0  0  0  0  0  0  0  0  0  0  0
  103.2120   99.1230  108.9780 C   0  0  0  0  0  0  0  0  0  0  0  0
  100.5900  100.0280  104.9040 C   0  0  0  0  0  0  0  0  0  0  0  0
   99.2550  100.2570  105.2220 C   0  0  0  0  0  0  0  0  0  0  0  0
  101.0640   99.9820  103.6360 N   0  0  0  0  0  0  0  0  0  0  0  0
   98.3310  100.2450  104.1860 C   0  0  0  0  0  0  0  0  0  0  0  0
  100.1500  100.0070  102.6320 C   0  0  0  0  0  0  0  0  0  0  0  0
   98.7800  100.0060  102.8880 C   0  0  0  0  0  0  0  0  0  0  0  0
  100.6850   99.9330  101.2340 C   0  0  0  0  0  0  0  0  0  0  0  0
   97.8790   99.6990  101.9030 O   0  0  0  0  0  0  0  0  0  0  0  0
   96.5550  100.1530  102.2850 C   0  0  1  0  0  0  0  0  0  0  0  0
   96.0420  101.1100  101.2020 C   0  0  0  0  0  0  0  0  0  0  0  0
   95.6000   98.9640  102.4300 C   0  0  0  0  0  0  0  0  0  0  0  0
   94.5270  101.3270  101.2510 C   0  0  0  0  0  0  0  0  0  0  0  0
   94.1880   99.4000  102.8480 C   0  0  2  0  0  0  0  0  0  0  0  0
   93.9030  100.8800  102.5700 C   0  0  0  0  0  0  0  0  0  0  0  0
   93.9640   99.1140  104.3360 C   0  0  0  0  0  0  0  0  0  0  0  0
   92.8720   98.5460  104.6250 O   0  0  0  0  0  0  0  0  0  0  0  0
   94.9040   99.3910  105.1390 O   0  0  0  0  0  0  0  0  0  0  0  0
  2  3  1  0  0  0  0
  2  1  1  0  0  0  0
  3  4  2  0  0  0  0
  5  7  1  0  0  0  0
  5  3  1  0  0  0  0
  6  5  1  0  0  0  0
  8  5  1  0  0  0  0
  9  8  1  0  0  0  0
  9 10  1  0  0  0  0
 11 13  1  0  0  0  0
 11  1  1  0  0  0  0
 12 11  2  0  0  0  0
 13 16  1  0  0  0  0
 14 12  1  0  0  0  0
 14 15  2  0  0  0  0
 15 13  1  0  0  0  0
 17 18  1  0  0  0  0
 17 12  1  0  0  0  0
 19 17  2  0  0  0  0
 20 18  2  0  0  0  0
 21 22  2  0  0  0  0
 21 19  1  0  0  0  0
 22 20  1  0  0  0  0
 23 21  1  0  0  0  0
 24 22  1  0  0  0  0
 25 24  1  6  0  0  0
 25 27  1  0  0  0  0
 26 28  1  0  0  0  0
 26 25  1  0  0  0  0
 27 29  1  0  0  0  0
 28 30  1  0  0  0  0
 29 31  1  1  0  0  0
 30 29  1  0  0  0  0
 31 32  2  0  0  0  0
 31 33  1  0  0  0  0
M  END
>  <minimizedAffinity>
-7.64646101

>  <CNNscore>
0.718566954

>  <CNNaffinity>
7.40280533

$$$$

 OpenBabel08262619083D

 33 35  0  0  1  0  0  0  0  0999 V2000
   97.6150  101.4610  105.3070 C   0  0  0  0  0  0  0  0  0  0  0  0
   98.0070  102.7070  104.7290 O   0  0  0  0  0  0  0  0  0  0  0  0
   98.2530  103.6930  105.6170 C   0  0  0  0  0  0  0  0  0  0  0  0
   98.1450  104.8960  105.4950 O   0  0  0  0  0  0  0  0  0  0  0  0
   98.4930  103.2110  106.9730 N   0  0  0  0  0  4  0  0  0  0  0  0
   99.9490  103.3460  107.2760 C   0  0  0  0  0  0  0  0  0  0  0  0
   98.3000  102.2170  106.8840 H   0  0  0  0  0  0  0  0  0  0  0  0
   97.6140  103.8610  107.9780 C   0  0  0  0  0  0  0  0  0  0  0  0
   96.2730  103.1430  108.1470 C   0  0  0  0  0  0  0  0  0  0  0  0
   95.1220  103.7940  107.3940 C   0  0  0  0  0  0  0  0  0  0  0  0
   97.5600  100.4380  104.2320 C   0  0  0  0  0  0  0  0  0  0  0  0
   98.5810   99.7550  103.5870 C   0  0  0  0  0  0  0  0  0  0  0  0
   96.4350   99.8710  103.7020 N   0  0  0  0  0  0  0  0  0  0  0  0
   98.0640   98.8480  102.7150 N   0  0  0  0  0  0  0  0  0  0  0  0
   96.7410   98.9330  102.7850 N   0  0  0  0  0  0  0  0  0  0  0  0
   95.0520  100.1100  104.0300 C   0  0  0  0  0  0  0  0  0  0  0  0
   99.9770   99.9530  103.9070 C   0  0  0  0  0  0  0  0  0  0  0  0
  100.5760   99.0690  104.7990 C   0  0  0  0  0  0  0  0  0  0  0  0
  100.4590  101.1890  103.6370 N   0  0  0  0  0  0  0  0  0  0  0  0
  101.6060   99.5500  105.5950 C   0  0  0  0  0  0  0  0  0  0  0  0
  101.4910  101.6330  104.3990 C   0  0  0  0  0  0  0  0  0  0  0  0
  101.9900  100.8840  105.4630 C   0  0  0  0  0  0  0  0  0  0  0  0
  102.0000  103.0110  104.1060 C   0  0  0  0  0  0  0  0  0  0  0  0
  102.7850  101.4590  106.4190 O   0  0  0  0  0  0  0  0  0  0  0  0
  103.1340  100.4770  107.4280 C   0  0  1  0  0  0  0  0  0  0  0  0
  101.9960  100.4130  108.4540 C   0  0  0  0  0  0  0  0  0  0  0  0
  103.3430   99.1010  106.7900 C   0  0  0  0  0  0  0  0  0  0  0  0
  102.0240   99.1480  109.3160 C   0  0  0  0  0  0  0  0  0  0  0  0
  103.7280   98.0320  107.8230 C   0  0  2  0  0  0  0  0  0  0  0  0
  103.3640   98.4190  109.2610 C   0  0  0  0  0  0  0  0  0  0  0  0
  105.2290   97.7370  107.7450 C   0  0  0  0  0  0  0  0  0  0  0  0
  105.9580   98.3950  108.5430 O   0  0  0  0  0  0  0  0  0  0  0  0
  105.6100   96.8180  106.9600 O   0  0  0  0  0  0  0  0  0  0  0  0
  2  1  1  0  0  0  0
  2  3  1  0  0  0  0
  3  5  1  0  0  0  0
  4  3  2  0  0  0  0
  5  6  1  0  0  0  0
  5  8  1  0  0  0  0
  7  5  1  0  0  0  0
  8  9  1  0  0  0  0
 10  9  1  0  0  0  0
 11  1  1  0  0  0  0
 12 17  1  0  0  0  0
 12 11  2  0  0  0  0
 13 16  1  0  0  0  0
 13 11  1  0  0  0  0
 14 15  2  0  0  0  0
 14 12  1  0  0  0  0
 15 13  1  0  0  0  0
 17 18  1  0  0  0  0
 18 20  2  0  0  0  0
 19 17  2  0  0  0  0
 19 21  1  0  0  0  0
 21 22  2  0  0  0  0
 22 20  1  0  0  0  0
 22 24  1  0  0  0  0
 23 21  1  0  0  0  0
 25 24  1  6  0  0  0
 25 26  1  0  0  0  0
 26 28  1  0  0  0  0
 27 25  1  0  0  0  0
 27 29  1  0  0  0  0
 29 31  1  1  0  0  0
 29 30  1  0  0  0  0
 30 28  1  0  0  0  0
 31 32  1  0  0  0  0
 33 31  2  0  0  0  0
M  END
>  <minimizedAffinity>
-7.79733181

>  <CNNscore>
0.716914058

>  <CNNaffinity>
7.3246007

$$$$

 OpenBabel08262619083D

 33 35  0  0  1  0  0  0  0  0999 V2000
   96.3610  102.3790  103.0170 C   0  0  0  0  0  0  0  0  0  0  0  0
   95.9590  102.7220  104.3440 O   0  0  0  0  0  0  0  0  0  0  0  0
   96.2150  103.9970  104.7040 C   0  0  0  0  0  0  0  0  0  0  0  0
   96.1130  105.0220  104.0620 O   0  0  0  0  0  0  0  0  0  0  0  0
   96.4600  104.1640  106.1320 N   0  0  0  0  0  4  0  0  0  0  0  0
   95.1860  104.5790  106.7900 C   0  0  0  0  0  0  0  0  0  0  0  0
   97.0790  104.9700  106.1510 H   0  0  0  0  0  0  0  0  0  0  0  0
   97.0870  102.9680  106.7500 C   0  0  0  0  0  0  0  0  0  0  0  0
   97.3050  103.1230  108.2570 C   0  0  0  0  0  0  0  0  0  0  0  0
   98.5780  103.8720  108.6240 C   0  0  0  0  0  0  0  0  0  0  0  0
   95.9200  100.9900  102.7340 C   0  0  0  0  0  0  0  0  0  0  0  0
   96.5760   99.7820  102.9210 C   0  0  0  0  0  0  0  0  0  0  0  0
   94.6840  100.6000  102.2970 N   0  0  0  0  0  0  0  0  0  0  0  0
   95.7580   98.7450  102.5900 N   0  0  0  0  0  0  0  0  0  0  0  0
   94.5980   99.2590  102.1980 N   0  0  0  0  0  0  0  0  0  0  0  0
   93.5260  101.4040  102.0010 C   0  0  0  0  0  0  0  0  0  0  0  0
   97.9050   99.6930  103.4810 C   0  0  0  0  0  0  0  0  0  0  0  0
   98.1010  100.1550  104.7790 C   0  0  0  0  0  0  0  0  0  0  0  0
   98.9020   99.5510  102.5750 N   0  0  0  0  0  0  0  0  0  0  0  0
   99.3450  100.6790  105.0990 C   0  0  0  0  0  0  0  0  0  0  0  0
  100.1240  100.0360  102.9170 C   0  0  0  0  0  0  0  0  0  0  0  0
  100.3320  100.7160  104.1150 C   0  0  0  0  0  0  0  0  0  0  0  0
  101.2120   99.8940  101.8970 C   0  0  0  0  0  0  0  0  0  0  0  0
  101.4530  101.4810  104.3060 O   0  0  0  0  0  0  0  0  0  0  0  0
  102.1060  101.1000  105.5440 C   0  0  1  0  0  0  0  0  0  0  0  0
  102.1600  102.3310  106.4590 C   0  0  0  0  0  0  0  0  0  0  0  0
  101.3360   99.9690  106.2320 C   0  0  0  0  0  0  0  0  0  0  0  0
  102.4250  101.9860  107.9270 C   0  0  0  0  0  0  0  0  0  0  0  0
  102.0010   99.5260  107.5440 C   0  0  2  0  0  0  0  0  0  0  0  0
  102.9640  100.5710  108.1190 C   0  0  0  0  0  0  0  0  0  0  0  0
  102.7540   98.2080  107.3370 C   0  0  0  0  0  0  0  0  0  0  0  0
  102.8390   97.8090  106.1390 O   0  0  0  0  0  0  0  0  0  0  0  0
  103.2900   97.6690  108.3500 O   0  0  0  0  0  0  0  0  0  0  0  0
  1  2  1  0  0  0  0
  2  3  1  0  0  0  0
  3  5  1  0  0  0  0
  4  3  2  0  0  0  0
  5  7  1  0  0  0  0
  5  8  1  0  0  0  0
  5  6  1  0  0  0  0
  8  9  1  0  0  0  0
  9 10  1  0  0  0  0
 11 12  2  0  0  0  0
 11  1  1  0  0  0  0
 12 17  1  0  0  0  0
 13 11  1  0  0  0  0
 14 12  1  0  0  0  0
 15 13  1  0  0  0  0
 15 14  2  0  0  0  0
 16 13  1  0  0  0  0
 17 18  1  0  0  0  0
 18 20  2  0  0  0  0
 19 21  1  0  0  0  0
 19 17  2  0  0  0  0
 21 22  2  0  0  0  0
 22 24  1  0  0  0  0
 22 20  1  0  0  0  0
 23 21  1  0  0  0  0
 25 24  1  6  0  0  0
 25 27  1  0  0  0  0
 25 26  1  0  0  0  0
 26 28  1  0  0  0  0
 27 29  1  0  0  0  0
 28 30  1  0  0  0  0
 29 31  1  6  0  0  0
 29 30  1  0  0  0  0
 31 33  1  0  0  0  0
 32 31  2  0  0  0  0
M  END
>  <minimizedAffinity>
-8.93927574

>  <CNNscore>
0.61836797

>  <CNNaffinity>
6.91208696

$$$$

 OpenBabel08262619083D

 33 35  0  0  1  0  0  0  0  0999 V2000
   97.0670  102.3630  103.3330 C   0  0  0  0  0  0  0  0  0  0  0  0
   96.4940  102.7490  104.5830 O   0  0  0  0  0  0  0  0  0  0  0  0
   96.4060  104.0820  104.7800 C   0  0  0  0  0  0  0  0  0  0  0  0
   96.0970  104.9640  104.0060 O   0  0  0  0  0  0  0  0  0  0  0  0
   96.5120  104.4740  106.1810 N   0  0  0  0  0  4  0  0  0  0  0  0
   96.7660  103.2520  107.0010 C   0  0  0  0  0  0  0  0  0  0  0  0
   95.5640  104.7780  106.3900 H   0  0  0  0  0  0  0  0  0  0  0  0
   97.5040  105.5560  106.4010 C   0  0  0  0  0  0  0  0  0  0  0  0
   97.7000  105.8910  107.8810 C   0  0  0  0  0  0  0  0  0  0  0  0
   98.9710  106.6730  108.1760 C   0  0  0  0  0  0  0  0  0  0  0  0
   96.2010  101.3250  102.7170 C   0  0  0  0  0  0  0  0  0  0  0  0
   96.4690  100.0000  102.4040 C   0  0  0  0  0  0  0  0  0  0  0  0
   94.8760  101.4480  102.4060 N   0  0  0  0  0  0  0  0  0  0  0  0
   95.3500   99.3950  101.9200 N   0  0  0  0  0  0  0  0  0  0  0  0
   94.3760  100.2970  101.9160 N   0  0  0  0  0  0  0  0  0  0  0  0
   93.9990  102.5780  102.5820 C   0  0  0  0  0  0  0  0  0  0  0  0
   97.7470   99.3780  102.6660 C   0  0  0  0  0  0  0  0  0  0  0  0
   97.9860   98.8880  103.9470 C   0  0  0  0  0  0  0  0  0  0  0  0
   98.7270   99.6850  101.7830 N   0  0  0  0  0  0  0  0  0  0  0  0
   99.2940   98.8980  104.4090 C   0  0  0  0  0  0  0  0  0  0  0  0
  100.0050   99.6540  102.2410 C   0  0  0  0  0  0  0  0  0  0  0  0
  100.2980   99.3920  103.5780 C   0  0  0  0  0  0  0  0  0  0  0  0
  101.0790  100.0180  101.2610 C   0  0  0  0  0  0  0  0  0  0  0  0
  101.5300   99.6850  104.1000 O   0  0  0  0  0  0  0  0  0  0  0  0
  101.3870  100.1760  105.4580 C   0  0  1  0  0  0  0  0  0  0  0  0
  102.1730   99.2470  106.3920 C   0  0  0  0  0  0  0  0  0  0  0  0
  101.9190  101.6070  105.5720 C   0  0  0  0  0  0  0  0  0  0  0  0
  102.4630   99.8660  107.7620 C   0  0  0  0  0  0  0  0  0  0  0  0
  101.7740  102.1710  106.9930 C   0  0  2  0  0  0  0  0  0  0  0  0
  101.5960  101.0860  108.0610 C   0  0  0  0  0  0  0  0  0  0  0  0
  100.5920  103.1430  107.0590 C   0  0  0  0  0  0  0  0  0  0  0  0
  100.1050  103.3330  108.2110 O   0  0  0  0  0  0  0  0  0  0  0  0
  100.2490  103.7300  105.9900 O   0  0  0  0  0  0  0  0  0  0  0  0
  1  2  1  0  0  0  0
  2  3  1  0  0  0  0
  3  5  1  0  0  0  0
  4  3  2  0  0  0  0
  5  7  1  0  0  0  0
  5  8  1  0  0  0  0
  5  6  1  0  0  0  0
  8  9  1  0  0  0  0
  9 10  1  0  0  0  0
 11  1  1  0  0  0  0
 12 17  1  0  0  0  0
 12 11  2  0  0  0  0
 13 16  1  0  0  0  0
 13 11  1  0  0  0  0
 14 12  1  0  0  0  0
 15 14  2  0  0  0  0
 15 13  1  0  0  0  0
 17 18  1  0  0  0  0
 18 20  2  0  0  0  0
 19 21  1  0  0  0  0
 19 17  2  0  0  0  0
 21 22  2  0  0  0  0
 22 24  1  0  0  0  0
 22 20  1  0  0  0  0
 23 21  1  0  0  0  0
 25 24  1  6  0  0  0
 25 27  1  0  0  0  0
 25 26  1  0  0  0  0
 26 28  1  0  0  0  0
 27 29  1  0  0  0  0
 28 30  1  0  0  0  0
 29 31  1  6  0  0  0
 29 30  1  0  0  0  0
 31 32  1  0  0  0  0
 33 31  2  0  0  0  0
M  END
>  <minimizedAffinity>
-8.24648476

>  <CNNscore>
0.547257662

>  <CNNaffinity>
6.50255823

$$$$

 OpenBabel08262619083D

 33 35  0  0  1  0  0  0  0  0999 V2000
  100.9340  102.0780  105.2980 C   0  0  0  0  0  0  0  0  0  0  0  0
  100.9190  103.0230  106.3690 O   0  0  0  0  0  0  0  0  0  0  0  0
   99.6940  103.3070  106.8590 C   0  0  0  0  0  0  0  0  0  0  0  0
   99.0870  102.7990  107.7790 O   0  0  0  0  0  0  0  0  0  0  0  0
   99.1170  104.5320  106.3160 N   0  0  0  0  0  4  0  0  0  0  0  0
   98.1980  105.1200  107.3360 C   0  0  0  0  0  0  0  0  0  0  0  0
   98.5350  104.1790  105.5620 H   0  0  0  0  0  0  0  0  0  0  0  0
  100.1470  105.4830  105.8250 C   0  0  0  0  0  0  0  0  0  0  0  0
   99.6730  106.9380  105.8510 C   0  0  0  0  0  0  0  0  0  0  0  0
  100.7380  107.9270  106.3010 C   0  0  0  0  0  0  0  0  0  0  0  0
  101.5510  100.8190  105.7870 C   0  0  0  0  0  0  0  0  0  0  0  0
  101.4710   99.5260  105.2910 C   0  0  0  0  0  0  0  0  0  0  0  0
  102.4380  100.6930  106.8190 N   0  0  0  0  0  0  0  0  0  0  0  0
  102.2650   98.6930  106.0170 N   0  0  0  0  0  0  0  0  0  0  0  0
  102.8500   99.4180  106.9620 N   0  0  0  0  0  0  0  0  0  0  0  0
  102.9870  101.7110  107.6790 C   0  0  0  0  0  0  0  0  0  0  0  0
  100.7110   99.1880  104.1090 C   0  0  0  0  0  0  0  0  0  0  0  0
  100.9690   99.8970  102.9400 C   0  0  0  0  0  0  0  0  0  0  0  0
   99.5600   98.5130  104.3390 N   0  0  0  0  0  0  0  0  0  0  0  0
   99.9220  100.0810  102.0490 C   0  0  0  0  0  0  0  0  0  0  0  0
   98.5550   98.6740  103.4400 C   0  0  0  0  0  0  0  0  0  0  0  0
   98.6710   99.5520  102.3640 C   0  0  0  0  0  0  0  0  0  0  0  0
   97.2790   97.9400  103.7180 C   0  0  0  0  0  0  0  0  0  0  0  0
   97.5650   99.9590  101.6650 O   0  0  0  0  0  0  0  0  0  0  0  0
   96.8090  100.9170  102.4510 C   0  0  1  0  0  0  0  0  0  0  0  0
   97.7700  101.6020  103.4300 C   0  0  0  0  0  0  0  0  0  0  0  0
   96.1540  101.9610  101.5420 C   0  0  0  0  0  0  0  0  0  0  0  0
   97.2190  102.9070  104.0110 C   0  0  0  0  0  0  0  0  0  0  0  0
   95.3320  102.9880  102.3330 C   0  0  2  0  0  0  0  0  0  0  0  0
   95.7120  103.0560  103.8170 C   0  0  0  0  0  0  0  0  0  0  0  0
   93.8370  102.6790  102.2100 C   0  0  0  0  0  0  0  0  0  0  0  0
   93.5490  101.4890  101.8910 O   0  0  0  0  0  0  0  0  0  0  0  0
   93.0170  103.5980  102.5070 O   0  0  0  0  0  0  0  0  0  0  0  0
  1 11  1  0  0  0  0
  1  2  1  0  0  0  0
  2  3  1  0  0  0  0
  3  4  2  0  0  0  0
  5  3  1  0  0  0  0
  5  6  1  0  0  0  0
  7  5  1  0  0  0  0
  8  9  1  0  0  0  0
  8  5  1  0  0  0  0
  9 10  1  0  0  0  0
 11 13  1  0  0  0  0
 12 11  2  0  0  0  0
 12 14  1  0  0  0  0
 13 15  1  0  0  0  0
 13 16  1  0  0  0  0
 14 15  2  0  0  0  0
 17 19  1  0  0  0  0
 17 12  1  0  0  0  0
 18 17  2  0  0  0  0
 20 22  2  0  0  0  0
 20 18  1  0  0  0  0
 21 23  1  0  0  0  0
 21 19  2  0  0  0  0
 22 21  1  0  0  0  0
 24 22  1  0  0  0  0
 25 24  1  6  0  0  0
 25 26  1  0  0  0  0
 26 28  1  0  0  0  0
 27 29  1  0  0  0  0
 27 25  1  0  0  0  0
 29 31  1  1  0  0  0
 29 30  1  0  0  0  0
 30 28  1  0  0  0  0
 31 33  1  0  0  0  0
 32 31  2  0  0  0  0
M  END
>  <minimizedAffinity>
-7.79460669

>  <CNNscore>
0.493543714

>  <CNNaffinity>
6.64614153

$$$$

 OpenBabel08262619083D

 33 35  0  0  1  0  0  0  0  0999 V2000
  100.3360  101.9750  105.5890 C   0  0  0  0  0  0  0  0  0  0  0  0
   98.9570  101.7300  105.8670 O   0  0  0  0  0  0  0  0  0  0  0  0
   98.4780  102.3550  106.9630 C   0  0  0  0  0  0  0  0  0  0  0  0
   99.0010  102.5430  108.0420 O   0  0  0  0  0  0  0  0  0  0  0  0
   97.2280  103.0690  106.7300 N   0  0  0  0  0  4  0  0  0  0  0  0
   96.0990  102.0950  106.8130 C   0  0  0  0  0  0  0  0  0  0  0  0
   97.3150  103.3390  105.7530 H   0  0  0  0  0  0  0  0  0  0  0  0
   97.0650  104.2460  107.6200 C   0  0  0  0  0  0  0  0  0  0  0  0
   97.5750  105.5440  106.9880 C   0  0  0  0  0  0  0  0  0  0  0  0
   98.4990  106.3490  107.8890 C   0  0  0  0  0  0  0  0  0  0  0  0
  101.1240  100.7960  106.0310 C   0  0  0  0  0  0  0  0  0  0  0  0
  101.3030   99.5580  105.4310 C   0  0  0  0  0  0  0  0  0  0  0  0
  101.9430  100.7250  107.1230 N   0  0  0  0  0  0  0  0  0  0  0  0
  102.1740   98.8050  106.1560 N   0  0  0  0  0  0  0  0  0  0  0  0
  102.5570   99.5280  107.2010 N   0  0  0  0  0  0  0  0  0  0  0  0
  102.2450  101.7370  108.1030 C   0  0  0  0  0  0  0  0  0  0  0  0
  100.6990   99.2080  104.1650 C   0  0  0  0  0  0  0  0  0  0  0  0
  101.1200   99.8910  103.0280 C   0  0  0  0  0  0  0  0  0  0  0  0
   99.5170   98.5530  104.2530 N   0  0  0  0  0  0  0  0  0  0  0  0
  100.2020  100.0730  102.0040 C   0  0  0  0  0  0  0  0  0  0  0  0
   98.6420   98.7110  103.2270 C   0  0  0  0  0  0  0  0  0  0  0  0
   98.9120   99.5660  102.1610 C   0  0  0  0  0  0  0  0  0  0  0  0
   97.3290   98.0000  103.3480 C   0  0  0  0  0  0  0  0  0  0  0  0
   97.9140   99.9760  101.3150 O   0  0  0  0  0  0  0  0  0  0  0  0
   96.8210  100.5440  102.0810 C   0  0  1  0  0  0  0  0  0  0  0  0
   97.3060  101.8540  102.7150 C   0  0  0  0  0  0  0  0  0  0  0  0
   95.6140  100.8140  101.1780 C   0  0  0  0  0  0  0  0  0  0  0  0
   96.1650  102.7610  103.1850 C   0  0  0  0  0  0  0  0  0  0  0  0
   94.4270  101.4050  101.9520 C   0  0  2  0  0  0  0  0  0  0  0  0
   94.8290  102.0320  103.2920 C   0  0  0  0  0  0  0  0  0  0  0  0
   93.3660  100.3280  102.1980 C   0  0  0  0  0  0  0  0  0  0  0  0
   93.6950   99.1510  101.8710 O   0  0  0  0  0  0  0  0  0  0  0  0
   92.2910  100.6780  102.7700 O   0  0  0  0  0  0  0  0  0  0  0  0
  1  2  1  0  0  0  0
  1 11  1  0  0  0  0
  2  3  1  0  0  0  0
  3  4  2  0  0  0  0
  5  6  1  0  0  0  0
  5  3  1  0  0  0  0
  5  8  1  0  0  0  0
  7  5  1  0  0  0  0
  9  8  1  0  0  0  0
  9 10  1  0  0  0  0
 11 13  1  0  0  0  0
 12 11  2  0  0  0  0
 12 14  1  0  0  0  0
 13 15  1  0  0  0  0
 13 16  1  0  0  0  0
 14 15  2  0  0  0  0
 17 19  1  0  0  0  0
 17 12  1  0  0  0  0
 18 17  2  0  0  0  0
 20 22  2  0  0  0  0
 20 18  1  0  0  0  0
 21 23  1  0  0  0  0
 21 19  2  0  0  0  0
 22 21  1  0  0  0  0
 24 22  1  0  0  0  0
 25 24  1  6  0  0  0
 25 26  1  0  0  0  0
 26 28  1  0  0  0  0
 27 29  1  0  0  0  0
 27 25  1  0  0  0  0
 28 30  1  0  0  0  0
 29 31  1  1  0  0  0
 29 30  1  0  0  0  0
 31 33  1  0  0  0  0
 32 31  2  0  0  0  0
M  END
>  <minimizedAffinity>
-7.4027319

>  <CNNscore>
0.47043258

>  <CNNaffinity>
6.7981267

$$$$
