
 OpenBabel08272603123D

 29 32  0  0  0  0  0  0  0  0999 V2000
   94.4770  101.9840  102.2350 C   0  0  0  0  0  0  0  0  0  0  0  0
   95.1850  101.4090  103.1660 N   0  0  0  0  0  0  0  0  0  0  0  0
   94.7000  100.2650  103.7600 N   0  0  0  0  0  0  0  0  0  0  0  0
   93.5130   99.6320  103.3860 C   0  0  0  0  0  0  0  0  0  0  0  0
   93.1360   98.5640  103.8640 O   0  0  0  0  0  0  0  0  0  0  0  0
   92.6860  100.3360  102.3850 C   0  0  0  0  0  0  0  0  0  0  0  0
   91.4520   99.8250  102.0810 N   0  0  0  0  0  0  0  0  0  0  0  0
   90.7260  100.5650  101.2120 C   0  0  0  0  0  0  0  0  0  0  0  0
   91.1750  101.7750  100.7040 C   0  0  0  0  0  0  0  0  0  0  0  0
   92.3740  102.2980  101.0370 N   0  0  0  0  0  0  0  0  0  0  0  0
   93.1380  101.5210  101.8530 C   0  0  0  0  0  0  0  0  0  0  0  0
   95.0510  103.1770  101.5190 C   0  0  0  0  0  0  0  0  0  0  0  0
   95.2260  104.3560  102.4680 C   0  0  0  0  0  0  0  0  0  0  0  0
   95.3440  104.0810  103.6960 O   0  0  0  0  0  0  0  0  0  0  0  0
   95.2090  105.4880  101.9030 O   0  0  0  0  0  0  0  0  0  0  0  0
   95.5590   99.6530  104.7710 C   0  0  0  0  0  0  0  0  0  0  0  0
   96.5310  100.6620  105.3150 C   0  0  0  0  0  0  0  0  0  0  0  0
   96.2210  101.6280  106.1590 N   0  0  0  0  0  0  0  0  0  0  0  0
   98.1980  100.5770  104.8870 S   0  0  0  0  0  0  0  0  0  0  0  0
   97.3400  102.3840  106.4540 C   0  0  0  0  0  0  0  0  0  0  0  0
   98.5230  101.9640  105.8490 C   0  0  0  0  0  0  0  0  0  0  0  0
   97.3700  103.5110  107.3000 C   0  0  0  0  0  0  0  0  0  0  0  0
   99.7390  102.6330  106.0550 C   0  0  0  0  0  0  0  0  0  0  0  0
   98.5780  104.1950  107.5300 C   0  0  0  0  0  0  0  0  0  0  0  0
   99.7460  103.7510  106.8980 C   0  0  0  0  0  0  0  0  0  0  0  0
   98.5980  105.4140  108.4170 C   0  0  0  0  0  0  0  0  0  0  0  0
   98.5500  105.1170  109.7450 F   0  0  0  0  0  0  0  0  0  0  0  0
   99.7180  106.1740  108.2510 F   0  0  0  0  0  0  0  0  0  0  0  0
   97.5480  106.2470  108.1810 F   0  0  0  0  0  0  0  0  0  0  0  0
  1  2  2  0  0  0  0
  2  3  1  0  0  0  0
  3 16  1  0  0  0  0
  4  3  1  0  0  0  0
  4  5  2  0  0  0  0
  6  4  1  0  0  0  0
  7  6  1  0  0  0  0
  8  7  2  0  0  0  0
  9 10  2  0  0  0  0
  9  8  1  0  0  0  0
 10 11  1  0  0  0  0
 11  1  1  0  0  0  0
 11  6  2  0  0  0  0
 12  1  1  0  0  0  0
 12 13  1  0  0  0  0
 13 14  1  0  0  0  0
 15 13  2  0  0  0  0
 16 17  1  0  0  0  0
 17 18  2  0  0  0  0
 18 20  1  0  0  0  0
 19 17  1  0  0  0  0
 19 21  1  0  0  0  0
 20 22  1  0  0  0  0
 21 23  1  0  0  0  0
 21 20  2  0  0  0  0
 22 24  2  0  0  0  0
 23 25  2  0  0  0  0
 24 26  1  0  0  0  0
 25 24  1  0  0  0  0
 26 27  1  0  0  0  0
 28 26  1  0  0  0  0
 29 26  1  0  0  0  0
M  END
>  <minimizedAffinity>
-7.87735748

>  <CNNscore>
0.673511803

>  <CNNaffinity>
6.54150391

$$$$

 OpenBabel08272603123D

 29 32  0  0  0  0  0  0  0  0999 V2000
  101.7380  102.0570  104.6340 C   0  0  0  0  0  0  0  0  0  0  0  0
  101.1420  101.6930  103.5340 N   0  0  0  0  0  0  0  0  0  0  0  0
  100.6860  100.3980  103.4220 N   0  0  0  0  0  0  0  0  0  0  0  0
  100.7620   99.4500  104.4440 C   0  0  0  0  0  0  0  0  0  0  0  0
  100.2720   98.3250  104.3620 O   0  0  0  0  0  0  0  0  0  0  0  0
  101.5080   99.8540  105.6530 C   0  0  0  0  0  0  0  0  0  0  0  0
  101.7260   98.9180  106.6290 N   0  0  0  0  0  0  0  0  0  0  0  0
  102.4770   99.3430  107.6700 C   0  0  0  0  0  0  0  0  0  0  0  0
  103.0280  100.6140  107.7240 C   0  0  0  0  0  0  0  0  0  0  0  0
  102.8480  101.5220  106.7410 N   0  0  0  0  0  0  0  0  0  0  0  0
  102.0310  101.1230  105.7270 C   0  0  0  0  0  0  0  0  0  0  0  0
  102.1500  103.4960  104.7950 C   0  0  0  0  0  0  0  0  0  0  0  0
  100.9370  104.3930  105.0110 C   0  0  0  0  0  0  0  0  0  0  0  0
  100.0830  103.9960  105.8540 O   0  0  0  0  0  0  0  0  0  0  0  0
  100.9230  105.4340  104.2930 O   0  0  0  0  0  0  0  0  0  0  0  0
   99.9970  100.0660  102.1770 C   0  0  0  0  0  0  0  0  0  0  0  0
   98.5690  100.5320  102.2270 C   0  0  0  0  0  0  0  0  0  0  0  0
   97.6210  100.1460  101.3940 N   0  0  0  0  0  0  0  0  0  0  0  0
   98.0520  101.6090  103.4690 S   0  0  0  0  0  0  0  0  0  0  0  0
   96.4260  100.7650  101.7080 C   0  0  0  0  0  0  0  0  0  0  0  0
   96.4610  101.6090  102.8160 C   0  0  0  0  0  0  0  0  0  0  0  0
   95.2100  100.6060  101.0120 C   0  0  0  0  0  0  0  0  0  0  0  0
   95.3240  102.3060  103.2550 C   0  0  0  0  0  0  0  0  0  0  0  0
   94.0540  101.2870  101.4350 C   0  0  0  0  0  0  0  0  0  0  0  0
   94.1290  102.1340  102.5480 C   0  0  0  0  0  0  0  0  0  0  0  0
   92.7640  101.1310  100.6720 C   0  0  0  0  0  0  0  0  0  0  0  0
   91.8420  100.3650  101.3200 F   0  0  0  0  0  0  0  0  0  0  0  0
   92.1450  102.3200  100.4240 F   0  0  0  0  0  0  0  0  0  0  0  0
   92.9460  100.5480   99.4550 F   0  0  0  0  0  0  0  0  0  0  0  0
  1 12  1  0  0  0  0
  1 11  1  0  0  0  0
  2  1  2  0  0  0  0
  3  2  1  0  0  0  0
  3  4  1  0  0  0  0
  4  6  1  0  0  0  0
  5  4  2  0  0  0  0
  6 11  2  0  0  0  0
  6  7  1  0  0  0  0
  7  8  2  0  0  0  0
  8  9  1  0  0  0  0
 10  9  2  0  0  0  0
 11 10  1  0  0  0  0
 12 13  1  0  0  0  0
 13 14  1  0  0  0  0
 15 13  2  0  0  0  0
 16 17  1  0  0  0  0
 16  3  1  0  0  0  0
 17 19  1  0  0  0  0
 18 20  1  0  0  0  0
 18 17  2  0  0  0  0
 20 21  1  0  0  0  0
 21 23  2  0  0  0  0
 21 19  1  0  0  0  0
 22 24  1  0  0  0  0
 22 20  2  0  0  0  0
 24 25  2  0  0  0  0
 25 23  1  0  0  0  0
 26 27  1  0  0  0  0
 26 24  1  0  0  0  0
 28 26  1  0  0  0  0
 29 26  1  0  0  0  0
M  END
>  <minimizedAffinity>
-8.20172501

>  <CNNscore>
0.635320067

>  <CNNaffinity>
6.86276484

$$$$

 OpenBabel08272603123D

 29 32  0  0  0  0  0  0  0  0999 V2000
   95.3520  101.5870  103.3180 C   0  0  0  0  0  0  0  0  0  0  0  0
   96.4440  101.4210  104.0080 N   0  0  0  0  0  0  0  0  0  0  0  0
   97.0910  100.2060  103.9460 N   0  0  0  0  0  0  0  0  0  0  0  0
   96.6880   99.1440  103.1340 C   0  0  0  0  0  0  0  0  0  0  0  0
   97.3240   98.0980  103.0220 O   0  0  0  0  0  0  0  0  0  0  0  0
   95.4080   99.3210  102.4190 C   0  0  0  0  0  0  0  0  0  0  0  0
   94.9020   98.2610  101.7150 N   0  0  0  0  0  0  0  0  0  0  0  0
   93.6930   98.4770  101.1480 C   0  0  0  0  0  0  0  0  0  0  0  0
   92.9940   99.6640  101.3080 C   0  0  0  0  0  0  0  0  0  0  0  0
   93.4750  100.6930  102.0380 N   0  0  0  0  0  0  0  0  0  0  0  0
   94.7240  100.5070  102.5480 C   0  0  0  0  0  0  0  0  0  0  0  0
   94.6980  102.9430  103.3090 C   0  0  0  0  0  0  0  0  0  0  0  0
   95.2220  103.7980  102.1620 C   0  0  0  0  0  0  0  0  0  0  0  0
   95.3190  105.0390  102.3800 O   0  0  0  0  0  0  0  0  0  0  0  0
   95.4810  103.1520  101.1050 O   0  0  0  0  0  0  0  0  0  0  0  0
   98.3280  100.0980  104.7170 C   0  0  0  0  0  0  0  0  0  0  0  0
   99.0400  101.4220  104.7550 C   0  0  0  0  0  0  0  0  0  0  0  0
   98.6560  102.4630  105.4690 N   0  0  0  0  0  0  0  0  0  0  0  0
  100.4990  101.6460  103.8670 S   0  0  0  0  0  0  0  0  0  0  0  0
   99.5220  103.5220  105.2760 C   0  0  0  0  0  0  0  0  0  0  0  0
  100.5970  103.2690  104.4260 C   0  0  0  0  0  0  0  0  0  0  0  0
   99.4020  104.8000  105.8600 C   0  0  0  0  0  0  0  0  0  0  0  0
  101.5590  104.2500  104.1350 C   0  0  0  0  0  0  0  0  0  0  0  0
  100.3560  105.7980  105.5910 C   0  0  0  0  0  0  0  0  0  0  0  0
  101.4190  105.5110  104.7250 C   0  0  0  0  0  0  0  0  0  0  0  0
  100.2080  107.1680  106.2010 C   0  0  0  0  0  0  0  0  0  0  0  0
   99.1670  107.8790  105.6860 F   0  0  0  0  0  0  0  0  0  0  0  0
   99.9980  107.1310  107.5480 F   0  0  0  0  0  0  0  0  0  0  0  0
  101.3150  107.9400  106.0200 F   0  0  0  0  0  0  0  0  0  0  0  0
  1  2  2  0  0  0  0
  3  2  1  0  0  0  0
  3 16  1  0  0  0  0
  4  3  1  0  0  0  0
  5  4  2  0  0  0  0
  6 11  1  0  0  0  0
  6  4  1  0  0  0  0
  7  6  2  0  0  0  0
  8  9  2  0  0  0  0
  8  7  1  0  0  0  0
  9 10  1  0  0  0  0
 10 11  2  0  0  0  0
 11  1  1  0  0  0  0
 12  1  1  0  0  0  0
 13 14  1  0  0  0  0
 13 12  1  0  0  0  0
 15 13  2  0  0  0  0
 16 17  1  0  0  0  0
 17 18  2  0  0  0  0
 19 21  1  0  0  0  0
 19 17  1  0  0  0  0
 20 18  1  0  0  0  0
 20 22  1  0  0  0  0
 21 20  2  0  0  0  0
 23 21  1  0  0  0  0
 23 25  2  0  0  0  0
 24 22  2  0  0  0  0
 24 26  1  0  0  0  0
 25 24  1  0  0  0  0
 26 28  1  0  0  0  0
 27 26  1  0  0  0  0
 29 26  1  0  0  0  0
M  END
>  <minimizedAffinity>
-8.19958305

>  <CNNscore>
0.564785242

>  <CNNaffinity>
6.20330381

$$$$

 OpenBabel08272603123D

 29 32  0  0  0  0  0  0  0  0999 V2000
   95.5810  101.9670  101.8790 C   0  0  0  0  0  0  0  0  0  0  0  0
   96.8320  101.8760  102.2300 N   0  0  0  0  0  0  0  0  0  0  0  0
   97.3300  100.6480  102.6060 N   0  0  0  0  0  0  0  0  0  0  0  0
   96.5930   99.4620  102.5750 C   0  0  0  0  0  0  0  0  0  0  0  0
   97.0740   98.3590  102.8280 O   0  0  0  0  0  0  0  0  0  0  0  0
   95.1590   99.5940  102.2480 C   0  0  0  0  0  0  0  0  0  0  0  0
   94.3640   98.4820  102.3330 N   0  0  0  0  0  0  0  0  0  0  0  0
   93.0520   98.6980  102.0900 C   0  0  0  0  0  0  0  0  0  0  0  0
   92.5390   99.9590  101.8230 C   0  0  0  0  0  0  0  0  0  0  0  0
   93.3170  101.0610  101.7810 N   0  0  0  0  0  0  0  0  0  0  0  0
   94.6490  100.8360  101.9520 C   0  0  0  0  0  0  0  0  0  0  0  0
   95.0630  103.2880  101.3760 C   0  0  0  0  0  0  0  0  0  0  0  0
   95.0990  104.3460  102.4720 C   0  0  0  0  0  0  0  0  0  0  0  0
   94.8990  103.9430  103.6530 O   0  0  0  0  0  0  0  0  0  0  0  0
   95.3080  105.5220  102.0560 O   0  0  0  0  0  0  0  0  0  0  0  0
   98.7480  100.6090  102.9560 C   0  0  0  0  0  0  0  0  0  0  0  0
   98.9970  101.3750  104.2250 C   0  0  0  0  0  0  0  0  0  0  0  0
   98.5750  102.6030  104.4590 N   0  0  0  0  0  0  0  0  0  0  0  0
   99.8420  100.6340  105.5310 S   0  0  0  0  0  0  0  0  0  0  0  0
   98.9770  103.0170  105.7150 C   0  0  0  0  0  0  0  0  0  0  0  0
   99.6880  102.0750  106.4570 C   0  0  0  0  0  0  0  0  0  0  0  0
   98.7250  104.2820  106.2840 C   0  0  0  0  0  0  0  0  0  0  0  0
  100.1610  102.3520  107.7490 C   0  0  0  0  0  0  0  0  0  0  0  0
   99.1820  104.5830  107.5800 C   0  0  0  0  0  0  0  0  0  0  0  0
   99.9010  103.6150  108.2920 C   0  0  0  0  0  0  0  0  0  0  0  0
   98.9290  105.9460  108.1720 C   0  0  0  0  0  0  0  0  0  0  0  0
   99.7240  106.9190  107.6460 F   0  0  0  0  0  0  0  0  0  0  0  0
   97.6490  106.3770  107.9870 F   0  0  0  0  0  0  0  0  0  0  0  0
   99.1400  105.9760  109.5160 F   0  0  0  0  0  0  0  0  0  0  0  0
  1 11  1  0  0  0  0
  1  2  2  0  0  0  0
  2  3  1  0  0  0  0
  3 16  1  0  0  0  0
  4  3  1  0  0  0  0
  4  5  2  0  0  0  0
  6  7  1  0  0  0  0
  6  4  1  0  0  0  0
  8  7  2  0  0  0  0
  9  8  1  0  0  0  0
 10  9  2  0  0  0  0
 10 11  1  0  0  0  0
 11  6  2  0  0  0  0
 12  1  1  0  0  0  0
 12 13  1  0  0  0  0
 13 14  1  0  0  0  0
 15 13  2  0  0  0  0
 16 17  1  0  0  0  0
 17 18  2  0  0  0  0
 17 19  1  0  0  0  0
 18 20  1  0  0  0  0
 19 21  1  0  0  0  0
 20 22  2  0  0  0  0
 20 21  1  0  0  0  0
 21 23  2  0  0  0  0
 22 24  1  0  0  0  0
 23 25  1  0  0  0  0
 24 26  1  0  0  0  0
 24 25  2  0  0  0  0
 26 29  1  0  0  0  0
 27 26  1  0  0  0  0
 28 26  1  0  0  0  0
M  END
>  <minimizedAffinity>
-8.42717838

>  <CNNscore>
0.559853911

>  <CNNaffinity>
6.57156754

$$$$

 OpenBabel08272603123D

 29 32  0  0  0  0  0  0  0  0999 V2000
   96.5840  100.3200  102.2630 C   0  0  0  0  0  0  0  0  0  0  0  0
   97.8550  100.0810  102.1090 N   0  0  0  0  0  0  0  0  0  0  0  0
   98.4980   99.2830  103.0300 N   0  0  0  0  0  0  0  0  0  0  0  0
   97.8590   98.6510  104.0990 C   0  0  0  0  0  0  0  0  0  0  0  0
   98.4270   97.8710  104.8610 O   0  0  0  0  0  0  0  0  0  0  0  0
   96.4370   98.9920  104.3030 C   0  0  0  0  0  0  0  0  0  0  0  0
   95.8010   98.5030  105.4120 N   0  0  0  0  0  0  0  0  0  0  0  0
   94.5230   98.9190  105.5670 C   0  0  0  0  0  0  0  0  0  0  0  0
   93.9170   99.8120  104.6970 C   0  0  0  0  0  0  0  0  0  0  0  0
   94.5590  100.3260  103.6270 N   0  0  0  0  0  0  0  0  0  0  0  0
   95.8200   99.8530  103.4260 C   0  0  0  0  0  0  0  0  0  0  0  0
   95.8600  101.1100  101.2050 C   0  0  0  0  0  0  0  0  0  0  0  0
   94.7000  100.3140  100.6210 C   0  0  0  0  0  0  0  0  0  0  0  0
   93.6270  100.9490  100.4120 O   0  0  0  0  0  0  0  0  0  0  0  0
   94.9490   99.0880  100.4350 O   0  0  0  0  0  0  0  0  0  0  0  0
   99.9140   99.0280  102.7800 C   0  0  0  0  0  0  0  0  0  0  0  0
  100.7330   99.3800  103.9910 C   0  0  0  0  0  0  0  0  0  0  0  0
  101.2550   98.5030  104.8270 N   0  0  0  0  0  0  0  0  0  0  0  0
  101.0980  101.0280  104.3400 S   0  0  0  0  0  0  0  0  0  0  0  0
  101.9420   99.1540  105.8350 C   0  0  0  0  0  0  0  0  0  0  0  0
  101.9670  100.5440  105.7430 C   0  0  0  0  0  0  0  0  0  0  0  0
  102.6010   98.5310  106.9150 C   0  0  0  0  0  0  0  0  0  0  0  0
  102.6250  101.3390  106.6950 C   0  0  0  0  0  0  0  0  0  0  0  0
  103.2750   99.3040  107.8780 C   0  0  0  0  0  0  0  0  0  0  0  0
  103.2720  100.6990  107.7580 C   0  0  0  0  0  0  0  0  0  0  0  0
  103.9580   98.6330  109.0420 C   0  0  0  0  0  0  0  0  0  0  0  0
  103.5650   97.3420  109.2270 F   0  0  0  0  0  0  0  0  0  0  0  0
  105.3150   98.5880  108.9100 F   0  0  0  0  0  0  0  0  0  0  0  0
  103.7220   99.2700  110.2220 F   0  0  0  0  0  0  0  0  0  0  0  0
  1 11  1  0  0  0  0
  2  1  2  0  0  0  0
  2  3  1  0  0  0  0
  3  4  1  0  0  0  0
  4  6  1  0  0  0  0
  4  5  2  0  0  0  0
  6  7  1  0  0  0  0
  7  8  2  0  0  0  0
  9  8  1  0  0  0  0
 10  9  2  0  0  0  0
 11 10  1  0  0  0  0
 11  6  2  0  0  0  0
 12  1  1  0  0  0  0
 13 12  1  0  0  0  0
 14 13  2  0  0  0  0
 15 13  1  0  0  0  0
 16  3  1  0  0  0  0
 16 17  1  0  0  0  0
 17 19  1  0  0  0  0
 17 18  2  0  0  0  0
 18 20  1  0  0  0  0
 19 21  1  0  0  0  0
 20 22  1  0  0  0  0
 21 20  2  0  0  0  0
 21 23  1  0  0  0  0
 22 24  2  0  0  0  0
 23 25  2  0  0  0  0
 24 26  1  0  0  0  0
 25 24  1  0  0  0  0
 26 27  1  0  0  0  0
 26 29  1  0  0  0  0
 28 26  1  0  0  0  0
M  END
>  <minimizedAffinity>
-9.1500349

>  <CNNscore>
0.558805108

>  <CNNaffinity>
6.55184937

$$$$

 OpenBabel08272603123D

 29 32  0  0  0  0  0  0  0  0999 V2000
   96.8950  101.0740  102.5590 C   0  0  0  0  0  0  0  0  0  0  0  0
   96.3740  101.4190  103.7020 N   0  0  0  0  0  0  0  0  0  0  0  0
   97.1560  101.3580  104.8350 N   0  0  0  0  0  0  0  0  0  0  0  0
   98.5080  101.0070  104.8350 C   0  0  0  0  0  0  0  0  0  0  0  0
   99.2160  101.0420  105.8390 O   0  0  0  0  0  0  0  0  0  0  0  0
   99.0610  100.5450  103.5460 C   0  0  0  0  0  0  0  0  0  0  0  0
  100.3430  100.0640  103.5200 N   0  0  0  0  0  0  0  0  0  0  0  0
  100.7520   99.5930  102.3200 C   0  0  0  0  0  0  0  0  0  0  0  0
   99.9220   99.5530  101.2110 C   0  0  0  0  0  0  0  0  0  0  0  0
   98.6450   99.9890  101.2480 N   0  0  0  0  0  0  0  0  0  0  0  0
   98.2520  100.5320  102.4340 C   0  0  0  0  0  0  0  0  0  0  0  0
   96.0710  101.2330  101.3090 C   0  0  0  0  0  0  0  0  0  0  0  0
   94.8850  100.2760  101.3070 C   0  0  0  0  0  0  0  0  0  0  0  0
   93.7440  100.7900  101.4840 O   0  0  0  0  0  0  0  0  0  0  0  0
   95.1950   99.0600  101.1460 O   0  0  0  0  0  0  0  0  0  0  0  0
   96.5210  101.7920  106.0770 C   0  0  0  0  0  0  0  0  0  0  0  0
   97.2060  103.0160  106.6170 C   0  0  0  0  0  0  0  0  0  0  0  0
   97.7030  103.9890  105.8770 N   0  0  0  0  0  0  0  0  0  0  0  0
   97.3380  103.2550  108.3190 S   0  0  0  0  0  0  0  0  0  0  0  0
   98.2700  104.9600  106.6800 C   0  0  0  0  0  0  0  0  0  0  0  0
   98.1720  104.7350  108.0520 C   0  0  0  0  0  0  0  0  0  0  0  0
   98.9170  106.1280  106.2270 C   0  0  0  0  0  0  0  0  0  0  0  0
   98.7010  105.6350  108.9910 C   0  0  0  0  0  0  0  0  0  0  0  0
   99.4490  107.0500  107.1470 C   0  0  0  0  0  0  0  0  0  0  0  0
   99.3400  106.7860  108.5180 C   0  0  0  0  0  0  0  0  0  0  0  0
  100.1600  108.2840  106.6540 C   0  0  0  0  0  0  0  0  0  0  0  0
   99.4420  109.4280  106.8310 F   0  0  0  0  0  0  0  0  0  0  0  0
  101.3520  108.4970  107.2800 F   0  0  0  0  0  0  0  0  0  0  0  0
  100.4460  108.2230  105.3240 F   0  0  0  0  0  0  0  0  0  0  0  0
  1  2  2  0  0  0  0
  2  3  1  0  0  0  0
  3 16  1  0  0  0  0
  4  3  1  0  0  0  0
  4  5  2  0  0  0  0
  6  4  1  0  0  0  0
  7  6  1  0  0  0  0
  8  7  2  0  0  0  0
  9 10  2  0  0  0  0
  9  8  1  0  0  0  0
 10 11  1  0  0  0  0
 11  1  1  0  0  0  0
 11  6  2  0  0  0  0
 12  1  1  0  0  0  0
 13 12  1  0  0  0  0
 13 14  1  0  0  0  0
 15 13  2  0  0  0  0
 16 17  1  0  0  0  0
 17 19  1  0  0  0  0
 18 17  2  0  0  0  0
 18 20  1  0  0  0  0
 20 21  1  0  0  0  0
 21 19  1  0  0  0  0
 21 23  2  0  0  0  0
 22 20  2  0  0  0  0
 22 24  1  0  0  0  0
 24 25  2  0  0  0  0
 25 23  1  0  0  0  0
 26 27  1  0  0  0  0
 26 24  1  0  0  0  0
 26 28  1  0  0  0  0
 29 26  1  0  0  0  0
M  END
>  <minimizedAffinity>
-7.73323774

>  <CNNscore>
0.51356566

>  <CNNaffinity>
6.39234924

$$$$

 OpenBabel08272603123D

 29 32  0  0  0  0  0  0  0  0999 V2000
   92.2590  101.5250  101.4850 C   0  0  0  0  0  0  0  0  0  0  0  0
   92.9180  102.6170  101.7480 N   0  0  0  0  0  0  0  0  0  0  0  0
   94.2950  102.5770  101.7610 N   0  0  0  0  0  0  0  0  0  0  0  0
   95.0470  101.4440  101.4440 C   0  0  0  0  0  0  0  0  0  0  0  0
   96.2750  101.4450  101.3720 O   0  0  0  0  0  0  0  0  0  0  0  0
   94.2880  100.1970  101.2240 C   0  0  0  0  0  0  0  0  0  0  0  0
   94.9840   99.0320  101.0410 N   0  0  0  0  0  0  0  0  0  0  0  0
   94.2180   97.9230  100.9180 C   0  0  0  0  0  0  0  0  0  0  0  0
   92.8360   97.9550  101.0200 C   0  0  0  0  0  0  0  0  0  0  0  0
   92.1540   99.0980  101.2420 N   0  0  0  0  0  0  0  0  0  0  0  0
   92.9140  100.2260  101.2920 C   0  0  0  0  0  0  0  0  0  0  0  0
   90.7590  101.5900  101.3760 C   0  0  0  0  0  0  0  0  0  0  0  0
   90.3110  101.5310   99.9210 C   0  0  0  0  0  0  0  0  0  0  0  0
   90.6630  102.4930   99.1810 O   0  0  0  0  0  0  0  0  0  0  0  0
   89.6110  100.5180   99.6310 O   0  0  0  0  0  0  0  0  0  0  0  0
   94.9720  103.8440  102.0290 C   0  0  0  0  0  0  0  0  0  0  0  0
   95.5610  103.8420  103.4110 C   0  0  0  0  0  0  0  0  0  0  0  0
   96.2310  104.8460  103.9460 N   0  0  0  0  0  0  0  0  0  0  0  0
   95.3380  102.4820  104.4460 S   0  0  0  0  0  0  0  0  0  0  0  0
   96.6430  104.5200  105.2240 C   0  0  0  0  0  0  0  0  0  0  0  0
   96.2510  103.2610  105.6770 C   0  0  0  0  0  0  0  0  0  0  0  0
   97.4030  105.3450  106.0780 C   0  0  0  0  0  0  0  0  0  0  0  0
   96.5960  102.7930  106.9550 C   0  0  0  0  0  0  0  0  0  0  0  0
   97.7550  104.9020  107.3660 C   0  0  0  0  0  0  0  0  0  0  0  0
   97.3520  103.6280  107.7850 C   0  0  0  0  0  0  0  0  0  0  0  0
   98.5880  105.7800  108.2650 C   0  0  0  0  0  0  0  0  0  0  0  0
   99.9280  105.6510  108.0550 F   0  0  0  0  0  0  0  0  0  0  0  0
   98.3180  107.1070  108.1110 F   0  0  0  0  0  0  0  0  0  0  0  0
   98.3880  105.5120  109.5840 F   0  0  0  0  0  0  0  0  0  0  0  0
  1  2  2  0  0  0  0
  2  3  1  0  0  0  0
  3 16  1  0  0  0  0
  4  3  1  0  0  0  0
  5  4  2  0  0  0  0
  6 11  1  0  0  0  0
  6  4  1  0  0  0  0
  7  6  2  0  0  0  0
  8  9  2  0  0  0  0
  8  7  1  0  0  0  0
  9 10  1  0  0  0  0
 10 11  2  0  0  0  0
 11  1  1  0  0  0  0
 12  1  1  0  0  0  0
 13 12  1  0  0  0  0
 14 13  2  0  0  0  0
 15 13  1  0  0  0  0
 16 17  1  0  0  0  0
 17 18  2  0  0  0  0
 17 19  1  0  0  0  0
 18 20  1  0  0  0  0
 19 21  1  0  0  0  0
 20 21  2  0  0  0  0
 20 22  1  0  0  0  0
 21 23  1  0  0  0  0
 22 24  2  0  0  0  0
 23 25  2  0  0  0  0
 24 25  1  0  0  0  0
 24 26  1  0  0  0  0
 26 29  1  0  0  0  0
 27 26  1  0  0  0  0
 28 26  1  0  0  0  0
M  END
>  <minimizedAffinity>
-8.01857948

>  <CNNscore>
0.501936674

>  <CNNaffinity>
6.02870417

$$$$

 OpenBabel08272603123D

 29 32  0  0  0  0  0  0  0  0999 V2000
   93.7720  100.4130  102.0480 C   0  0  0  0  0  0  0  0  0  0  0  0
   95.0220  100.7220  102.2410 N   0  0  0  0  0  0  0  0  0  0  0  0
   95.6510  100.2710  103.3810 N   0  0  0  0  0  0  0  0  0  0  0  0
   95.0510   99.4400  104.3290 C   0  0  0  0  0  0  0  0  0  0  0  0
   95.6500   98.9730  105.2960 O   0  0  0  0  0  0  0  0  0  0  0  0
   93.6130   99.1610  104.1350 C   0  0  0  0  0  0  0  0  0  0  0  0
   92.9470   98.4610  105.1050 N   0  0  0  0  0  0  0  0  0  0  0  0
   91.6200   98.3100  104.8910 C   0  0  0  0  0  0  0  0  0  0  0  0
   90.9720   98.8640  103.7970 C   0  0  0  0  0  0  0  0  0  0  0  0
   91.6230   99.5900  102.8630 N   0  0  0  0  0  0  0  0  0  0  0  0
   92.9710   99.6810  103.0360 C   0  0  0  0  0  0  0  0  0  0  0  0
   93.1130  100.8230  100.7580 C   0  0  0  0  0  0  0  0  0  0  0  0
   92.2780  102.0840  100.9440 C   0  0  0  0  0  0  0  0  0  0  0  0
   91.2960  102.2330  100.1620 O   0  0  0  0  0  0  0  0  0  0  0  0
   92.6890  102.8520  101.8610 O   0  0  0  0  0  0  0  0  0  0  0  0
   97.0620  100.6250  103.5190 C   0  0  0  0  0  0  0  0  0  0  0  0
   97.2250  101.7660  104.4850 C   0  0  0  0  0  0  0  0  0  0  0  0
   97.9950  101.7400  105.5560 N   0  0  0  0  0  0  0  0  0  0  0  0
   96.4180  103.2620  104.2030 S   0  0  0  0  0  0  0  0  0  0  0  0
   97.9140  102.9430  106.2320 C   0  0  0  0  0  0  0  0  0  0  0  0
   97.0960  103.9060  105.6450 C   0  0  0  0  0  0  0  0  0  0  0  0
   98.5830  103.2580  107.4330 C   0  0  0  0  0  0  0  0  0  0  0  0
   96.9160  105.1750  106.2180 C   0  0  0  0  0  0  0  0  0  0  0  0
   98.4270  104.5250  108.0230 C   0  0  0  0  0  0  0  0  0  0  0  0
   97.5890  105.4650  107.4110 C   0  0  0  0  0  0  0  0  0  0  0  0
   99.1260  104.8460  109.3190 C   0  0  0  0  0  0  0  0  0  0  0  0
   98.4150  104.4810  110.4220 F   0  0  0  0  0  0  0  0  0  0  0  0
  100.3350  104.2260  109.4390 F   0  0  0  0  0  0  0  0  0  0  0  0
   99.3780  106.1760  109.4590 F   0  0  0  0  0  0  0  0  0  0  0  0
  1  2  2  0  0  0  0
  1 11  1  0  0  0  0
  2  3  1  0  0  0  0
  3 16  1  0  0  0  0
  3  4  1  0  0  0  0
  4  5  2  0  0  0  0
  6  4  1  0  0  0  0
  6  7  1  0  0  0  0
  8  7  2  0  0  0  0
  9  8  1  0  0  0  0
 10 11  1  0  0  0  0
 10  9  2  0  0  0  0
 11  6  2  0  0  0  0
 12 13  1  0  0  0  0
 12  1  1  0  0  0  0
 13 15  1  0  0  0  0
 14 13  2  0  0  0  0
 16 17  1  0  0  0  0
 17 18  2  0  0  0  0
 18 20  1  0  0  0  0
 19 17  1  0  0  0  0
 19 21  1  0  0  0  0
 20 22  1  0  0  0  0
 21 23  1  0  0  0  0
 21 20  2  0  0  0  0
 22 24  2  0  0  0  0
 23 25  2  0  0  0  0
 24 26  1  0  0  0  0
 25 24  1  0  0  0  0
 26 28  1  0  0  0  0
 26 29  1  0  0  0  0
 26 27  1  0  0  0  0
M  END
>  <minimizedAffinity>
-7.95837355

>  <CNNscore>
0.470985562

>  <CNNaffinity>
6.30184031

$$$$

 OpenBabel08272603123D

 29 32  0  0  0  0  0  0  0  0999 V2000
   95.0620  102.2610  101.6590 C   0  0  0  0  0  0  0  0  0  0  0  0
   96.1980  101.7070  101.9720 N   0  0  0  0  0  0  0  0  0  0  0  0
   96.2470  100.3420  102.1440 N   0  0  0  0  0  0  0  0  0  0  0  0
   95.1610   99.4880  101.9420 C   0  0  0  0  0  0  0  0  0  0  0  0
   95.2410   98.2620  102.0130 O   0  0  0  0  0  0  0  0  0  0  0  0
   93.8640  100.1370  101.6630 C   0  0  0  0  0  0  0  0  0  0  0  0
   92.7440   99.3530  101.5870 N   0  0  0  0  0  0  0  0  0  0  0  0
   91.5870  100.0280  101.4020 C   0  0  0  0  0  0  0  0  0  0  0  0
   91.5300  101.4120  101.3420 C   0  0  0  0  0  0  0  0  0  0  0  0
   92.6300  102.1860  101.4580 N   0  0  0  0  0  0  0  0  0  0  0  0
   93.8060  101.5080  101.5710 C   0  0  0  0  0  0  0  0  0  0  0  0
   95.0280  103.7400  101.3750 C   0  0  0  0  0  0  0  0  0  0  0  0
   95.2490  104.5480  102.6470 C   0  0  0  0  0  0  0  0  0  0  0  0
   95.6530  105.7370  102.4990 O   0  0  0  0  0  0  0  0  0  0  0  0
   95.0180  103.9130  103.7170 O   0  0  0  0  0  0  0  0  0  0  0  0
   97.5590   99.7810  102.4610 C   0  0  0  0  0  0  0  0  0  0  0  0
   98.0870  100.3710  103.7390 C   0  0  0  0  0  0  0  0  0  0  0  0
   97.4300  101.2210  104.5040 N   0  0  0  0  0  0  0  0  0  0  0  0
   99.6360   99.9030  104.3330 S   0  0  0  0  0  0  0  0  0  0  0  0
   98.1980  101.5740  105.5980 C   0  0  0  0  0  0  0  0  0  0  0  0
   99.4440  100.9550  105.6790 C   0  0  0  0  0  0  0  0  0  0  0  0
   97.8210  102.4830  106.6070 C   0  0  0  0  0  0  0  0  0  0  0  0
  100.3330  101.2150  106.7340 C   0  0  0  0  0  0  0  0  0  0  0  0
   98.6910  102.7550  107.6800 C   0  0  0  0  0  0  0  0  0  0  0  0
   99.9390  102.1220  107.7240 C   0  0  0  0  0  0  0  0  0  0  0  0
   98.2910  103.7460  108.7430 C   0  0  0  0  0  0  0  0  0  0  0  0
   97.6170  104.8230  108.2520 F   0  0  0  0  0  0  0  0  0  0  0  0
   97.4790  103.2060  109.6950 F   0  0  0  0  0  0  0  0  0  0  0  0
   99.3630  104.2500  109.4140 F   0  0  0  0  0  0  0  0  0  0  0  0
  1  2  2  0  0  0  0
  2  3  1  0  0  0  0
  3 16  1  0  0  0  0
  4  5  2  0  0  0  0
  4  3  1  0  0  0  0
  6  4  1  0  0  0  0
  7  6  1  0  0  0  0
  8  7  2  0  0  0  0
  9  8  1  0  0  0  0
  9 10  2  0  0  0  0
 10 11  1  0  0  0  0
 11  1  1  0  0  0  0
 11  6  2  0  0  0  0
 12  1  1  0  0  0  0
 12 13  1  0  0  0  0
 13 15  1  0  0  0  0
 14 13  2  0  0  0  0
 16 17  1  0  0  0  0
 17 19  1  0  0  0  0
 17 18  2  0  0  0  0
 18 20  1  0  0  0  0
 19 21  1  0  0  0  0
 20 21  2  0  0  0  0
 20 22  1  0  0  0  0
 21 23  1  0  0  0  0
 22 24  2  0  0  0  0
 23 25  2  0  0  0  0
 24 25  1  0  0  0  0
 24 26  1  0  0  0  0
 26 29  1  0  0  0  0
 26 28  1  0  0  0  0
 27 26  1  0  0  0  0
M  END
>  <minimizedAffinity>
-8.21106243

>  <CNNscore>
0.447538942

>  <CNNaffinity>
6.14149237

$$$$
