
 OpenBabel08262621333D

 29 32  0  0  1  0  0  0  0  0999 V2000
  102.9480  100.4410  108.6140 C   0  0  0  0  0  0  0  0  0  0  0  0
  103.0070   98.9090  108.4530 C   0  0  0  0  0  0  0  0  0  0  0  0
  102.5490   98.2640  109.7640 C   0  0  0  0  0  0  0  0  0  0  0  0
  102.1090   98.4940  107.2630 C   0  0  0  0  0  0  0  0  0  0  0  0
  101.9190   99.4690  106.1500 N   0  0  0  0  0  0  0  0  0  0  0  0
  102.3010  100.8390  106.5770 C   0  0  0  0  0  0  0  0  0  0  0  0
  100.5040   99.4460  105.7300 C   0  0  0  0  0  0  0  0  0  0  0  0
  102.0120  101.9270  105.5240 C   0  0  0  0  0  0  0  0  0  0  0  0
  100.2130  100.4810  104.6330 C   0  0  0  0  0  0  0  0  0  0  0  0
  100.5610  101.8440  105.1240 N   0  0  0  0  0  0  0  0  0  0  0  0
   99.6940  102.8300  105.4140 C   0  0  2  0  0  0  0  0  0  0  0  0
   98.3950  102.5610  105.5310 N   0  0  0  0  0  0  0  0  0  0  0  0
  100.1880  104.2330  105.4320 C   0  0  0  0  0  0  0  0  0  0  0  0
   97.4260  103.4250  105.9620 C   0  0  0  0  0  0  0  0  0  0  0  0
  101.0560  104.7040  104.4250 C   0  0  0  0  0  0  0  0  0  0  0  0
   99.7960  105.1360  106.4190 C   0  0  0  0  0  0  0  0  0  0  0  0
   96.1020  103.1470  105.5850 C   0  0  0  0  0  0  0  0  0  0  0  0
   97.6430  104.4970  106.8420 C   0  0  0  0  0  0  0  0  0  0  0  0
  101.5660  106.0050  104.4630 C   0  0  0  0  0  0  0  0  0  0  0  0
   98.8800  104.7780  107.3710 O   0  0  0  0  0  0  0  0  0  0  0  0
  100.3150  106.4310  106.4770 C   0  0  0  0  0  0  0  0  0  0  0  0
   95.0390  103.9350  106.0400 C   0  0  0  0  0  0  0  0  0  0  0  0
   96.5800  105.2750  107.3150 C   0  0  0  0  0  0  0  0  0  0  0  0
  101.2040  106.8630  105.4960 C   0  0  0  0  0  0  0  0  0  0  0  0
   95.2800  105.0000  106.9040 C   0  0  0  0  0  0  0  0  0  0  0  0
   98.0910  101.6190  105.3600 H   0  0  0  0  0  0  0  0  0  0  0  0
  104.5000   98.6740  108.1090 C   0  0  0  0  0  0  0  0  0  0  0  0
  105.2470   99.6940  108.1810 O   0  0  0  0  0  0  0  0  0  0  0  0
  104.8020   97.5100  107.7270 O   0  0  0  0  0  0  0  0  0  0  0  0
  2  1  1  0  0  0  0
  2  3  1  0  0  0  0
  4  2  1  0  0  0  0
  5  6  1  0  0  0  0
  5  4  1  0  0  0  0
  7  5  1  0  0  0  0
  8  6  1  0  0  0  0
  9 10  1  0  0  0  0
  9  7  1  0  0  0  0
 10  8  1  0  0  0  0
 11 10  1  6  0  0  0
 11 13  1  0  0  0  0
 11 12  1  0  0  0  0
 12 14  1  0  0  0  0
 13 16  1  0  0  0  0
 14 18  1  0  0  0  0
 15 19  1  0  0  0  0
 15 13  2  0  0  0  0
 16 21  2  0  0  0  0
 16 20  1  0  0  0  0
 17 14  2  0  0  0  0
 17 22  1  0  0  0  0
 18 23  2  0  0  0  0
 18 20  1  0  0  0  0
 19 24  2  0  0  0  0
 22 25  2  0  0  0  0
 24 21  1  0  0  0  0
 25 23  1  0  0  0  0
 26 12  1  0  0  0  0
 27 28  1  0  0  0  0
 27  2  1  0  0  0  0
 29 27  2  0  0  0  0
M  END
>  <minimizedAffinity>
-8.55198097

>  <CNNscore>
0.772846162

>  <CNNaffinity>
7.27984285

$$$$

 OpenBabel08262621333D

 29 32  0  0  1  0  0  0  0  0999 V2000
  103.5290   99.9450  108.8510 C   0  0  0  0  0  0  0  0  0  0  0  0
  103.1870   98.5340  108.3340 C   0  0  0  0  0  0  0  0  0  0  0  0
  102.6310   97.7110  109.5000 C   0  0  0  0  0  0  0  0  0  0  0  0
  102.1650   98.6560  107.1780 C   0  0  0  0  0  0  0  0  0  0  0  0
  102.2600   99.8410  106.2770 N   0  0  0  0  0  0  0  0  0  0  0  0
  101.7940  101.0700  106.9700 C   0  0  0  0  0  0  0  0  0  0  0  0
  101.4380   99.5960  105.0760 C   0  0  0  0  0  0  0  0  0  0  0  0
  101.7390  102.3160  106.0650 C   0  0  0  0  0  0  0  0  0  0  0  0
  101.4250  100.8070  104.1310 C   0  0  0  0  0  0  0  0  0  0  0  0
  100.9020  102.0010  104.8520 N   0  0  0  0  0  0  0  0  0  0  0  0
   99.7220  102.6070  104.6350 C   0  0  2  0  0  0  0  0  0  0  0  0
   98.7870  102.0030  103.9030 N   0  0  0  0  0  0  0  0  0  0  0  0
   99.5500  104.0170  105.0790 C   0  0  0  0  0  0  0  0  0  0  0  0
   97.5000  102.4290  103.7220 C   0  0  0  0  0  0  0  0  0  0  0  0
  100.5690  104.9670  104.8670 C   0  0  0  0  0  0  0  0  0  0  0  0
   98.3770  104.4540  105.6930 C   0  0  0  0  0  0  0  0  0  0  0  0
   96.8200  101.9580  102.5880 C   0  0  0  0  0  0  0  0  0  0  0  0
   96.7770  103.2050  104.6420 C   0  0  0  0  0  0  0  0  0  0  0  0
  100.4380  106.2800  105.3270 C   0  0  0  0  0  0  0  0  0  0  0  0
   97.3090  103.6120  105.8420 O   0  0  0  0  0  0  0  0  0  0  0  0
   98.2430  105.7580  106.1740 C   0  0  0  0  0  0  0  0  0  0  0  0
   95.4790  102.2840  102.3610 C   0  0  0  0  0  0  0  0  0  0  0  0
   95.4300  103.5170  104.4280 C   0  0  0  0  0  0  0  0  0  0  0  0
   99.2790  106.6710  105.9920 C   0  0  0  0  0  0  0  0  0  0  0  0
   94.7850  103.0650  103.2810 C   0  0  0  0  0  0  0  0  0  0  0  0
   99.0100  101.1110  103.4970 H   0  0  0  0  0  0  0  0  0  0  0  0
  104.5540   98.0410  107.7960 C   0  0  0  0  0  0  0  0  0  0  0  0
  104.5070   97.3190  106.7570 O   0  0  0  0  0  0  0  0  0  0  0  0
  105.5640   98.3510  108.4870 O   0  0  0  0  0  0  0  0  0  0  0  0
  2  1  1  0  0  0  0
  2  3  1  0  0  0  0
  4  2  1  0  0  0  0
  5  6  1  0  0  0  0
  5  4  1  0  0  0  0
  7  5  1  0  0  0  0
  8  6  1  0  0  0  0
  9 10  1  0  0  0  0
  9  7  1  0  0  0  0
 10  8  1  0  0  0  0
 11 10  1  6  0  0  0
 11 13  1  0  0  0  0
 12 11  1  0  0  0  0
 13 16  1  0  0  0  0
 14 12  1  0  0  0  0
 14 18  1  0  0  0  0
 15 13  2  0  0  0  0
 15 19  1  0  0  0  0
 16 20  1  0  0  0  0
 16 21  2  0  0  0  0
 17 14  2  0  0  0  0
 18 20  1  0  0  0  0
 19 24  2  0  0  0  0
 22 17  1  0  0  0  0
 22 25  2  0  0  0  0
 23 18  2  0  0  0  0
 24 21  1  0  0  0  0
 25 23  1  0  0  0  0
 26 12  1  0  0  0  0
 27  2  1  0  0  0  0
 27 29  1  0  0  0  0
 28 27  2  0  0  0  0
M  END
>  <minimizedAffinity>
-9.03002644

>  <CNNscore>
0.717665434

>  <CNNaffinity>
6.97596979

$$$$

 OpenBabel08262621333D

 29 32  0  0  1  0  0  0  0  0999 V2000
  103.6200   99.8010  108.9490 C   0  0  0  0  0  0  0  0  0  0  0  0
  103.3700   98.4260  108.2980 C   0  0  0  0  0  0  0  0  0  0  0  0
  102.5930   97.5530  109.2890 C   0  0  0  0  0  0  0  0  0  0  0  0
  102.5900   98.6300  106.9770 C   0  0  0  0  0  0  0  0  0  0  0  0
  102.1180  100.0050  106.6430 N   0  0  0  0  0  0  0  0  0  0  0  0
  100.9260  100.3650  107.4530 C   0  0  0  0  0  0  0  0  0  0  0  0
  101.7890  100.0610  105.2050 C   0  0  0  0  0  0  0  0  0  0  0  0
  100.3000  101.7220  107.0750 C   0  0  0  0  0  0  0  0  0  0  0  0
  101.2230  101.4310  104.7990 C   0  0  0  0  0  0  0  0  0  0  0  0
  100.0000  101.7260  105.5970 N   0  0  0  0  0  0  0  0  0  0  0  0
   98.7390  101.7650  105.1340 C   0  0  2  0  0  0  0  0  0  0  0  0
   98.4550  101.2690  103.9320 N   0  0  0  0  0  0  0  0  0  0  0  0
   97.7160  102.5150  105.9120 C   0  0  0  0  0  0  0  0  0  0  0  0
   97.2070  101.1090  103.3970 C   0  0  0  0  0  0  0  0  0  0  0  0
   98.0130  103.7780  106.4610 C   0  0  0  0  0  0  0  0  0  0  0  0
   96.4290  102.0140  106.1030 C   0  0  0  0  0  0  0  0  0  0  0  0
   97.1110  101.0260  101.9980 C   0  0  0  0  0  0  0  0  0  0  0  0
   96.0360  100.9050  104.1440 C   0  0  0  0  0  0  0  0  0  0  0  0
   97.0750  104.4670  107.2360 C   0  0  0  0  0  0  0  0  0  0  0  0
   96.0390  100.8410  105.5170 O   0  0  0  0  0  0  0  0  0  0  0  0
   95.4910  102.6840  106.8920 C   0  0  0  0  0  0  0  0  0  0  0  0
   95.8850  100.7900  101.3690 C   0  0  0  0  0  0  0  0  0  0  0  0
   94.8100  100.6490  103.5190 C   0  0  0  0  0  0  0  0  0  0  0  0
   95.8190  103.9120  107.4620 C   0  0  0  0  0  0  0  0  0  0  0  0
   94.7350  100.6030  102.1310 C   0  0  0  0  0  0  0  0  0  0  0  0
   99.2130  100.9070  103.3790 H   0  0  0  0  0  0  0  0  0  0  0  0
  104.8100   97.9350  108.0030 C   0  0  0  0  0  0  0  0  0  0  0  0
  105.7250   98.4720  108.6960 O   0  0  0  0  0  0  0  0  0  0  0  0
  104.9300   97.1080  107.0580 O   0  0  0  0  0  0  0  0  0  0  0  0
  2  1  1  0  0  0  0
  2  3  1  0  0  0  0
  4  2  1  0  0  0  0
  5  4  1  0  0  0  0
  5  6  1  0  0  0  0
  7  5  1  0  0  0  0
  8  6  1  0  0  0  0
  9  7  1  0  0  0  0
  9 10  1  0  0  0  0
 10  8  1  0  0  0  0
 11 10  1  6  0  0  0
 11 13  1  0  0  0  0
 12 11  1  0  0  0  0
 13 16  2  0  0  0  0
 13 15  1  0  0  0  0
 14 12  1  0  0  0  0
 14 18  1  0  0  0  0
 15 19  2  0  0  0  0
 16 21  1  0  0  0  0
 17 14  2  0  0  0  0
 18 20  1  0  0  0  0
 19 24  1  0  0  0  0
 20 16  1  0  0  0  0
 21 24  2  0  0  0  0
 22 17  1  0  0  0  0
 22 25  2  0  0  0  0
 23 18  2  0  0  0  0
 25 23  1  0  0  0  0
 26 12  1  0  0  0  0
 27  2  1  0  0  0  0
 27 28  1  0  0  0  0
 29 27  2  0  0  0  0
M  END
>  <minimizedAffinity>
-8.68977737

>  <CNNscore>
0.652615309

>  <CNNaffinity>
6.99538565

$$$$

 OpenBabel08262621333D

 29 32  0  0  1  0  0  0  0  0999 V2000
  104.7400   98.7910  107.9520 C   0  0  0  0  0  0  0  0  0  0  0  0
  103.2620   99.1030  108.2590 C   0  0  0  0  0  0  0  0  0  0  0  0
  103.1300  100.6030  108.5410 C   0  0  0  0  0  0  0  0  0  0  0  0
  102.3950   98.6660  107.0540 C   0  0  0  0  0  0  0  0  0  0  0  0
  102.1430   99.6600  105.9710 N   0  0  0  0  0  0  0  0  0  0  0  0
  102.4650  101.0350  106.4310 C   0  0  0  0  0  0  0  0  0  0  0  0
  100.7240   99.5800  105.5690 C   0  0  0  0  0  0  0  0  0  0  0  0
  102.1090  102.1360  105.4110 C   0  0  0  0  0  0  0  0  0  0  0  0
  100.3690  100.6300  104.5050 C   0  0  0  0  0  0  0  0  0  0  0  0
  100.6580  101.9940  105.0290 N   0  0  0  0  0  0  0  0  0  0  0  0
   99.7490  102.9290  105.3570 C   0  0  2  0  0  0  0  0  0  0  0  0
   98.4670  102.5950  105.4840 N   0  0  0  0  0  0  0  0  0  0  0  0
  100.1760  104.3530  105.4060 C   0  0  0  0  0  0  0  0  0  0  0  0
   97.4640  103.4000  105.9510 C   0  0  0  0  0  0  0  0  0  0  0  0
  101.0050  104.8920  104.4020 C   0  0  0  0  0  0  0  0  0  0  0  0
   99.7560  105.2090  106.4240 C   0  0  0  0  0  0  0  0  0  0  0  0
   96.1500  103.0680  105.5840 C   0  0  0  0  0  0  0  0  0  0  0  0
   97.6420  104.4560  106.8570 C   0  0  0  0  0  0  0  0  0  0  0  0
  101.4530  106.2140  104.4680 C   0  0  0  0  0  0  0  0  0  0  0  0
   98.8720  104.7830  107.3770 O   0  0  0  0  0  0  0  0  0  0  0  0
  100.2130  106.5260  106.5100 C   0  0  0  0  0  0  0  0  0  0  0  0
   95.0570  103.7910  106.0740 C   0  0  0  0  0  0  0  0  0  0  0  0
   96.5500  105.1700  107.3650 C   0  0  0  0  0  0  0  0  0  0  0  0
  101.0670  107.0270  105.5300 C   0  0  0  0  0  0  0  0  0  0  0  0
   95.2590  104.8430  106.9640 C   0  0  0  0  0  0  0  0  0  0  0  0
   98.2050  101.6440  105.2910 H   0  0  0  0  0  0  0  0  0  0  0  0
  102.9830   98.1940  109.4830 C   0  0  0  0  0  0  0  0  0  0  0  0
  103.4140   98.6210  110.5940 O   0  0  0  0  0  0  0  0  0  0  0  0
  102.4190   97.0920  109.2350 O   0  0  0  0  0  0  0  0  0  0  0  0
  1  2  1  0  0  0  0
  2  3  1  0  0  0  0
  2 27  1  0  0  0  0
  4  2  1  0  0  0  0
  5  6  1  0  0  0  0
  5  4  1  0  0  0  0
  7  5  1  0  0  0  0
  8  6  1  0  0  0  0
  9 10  1  0  0  0  0
  9  7  1  0  0  0  0
 10  8  1  0  0  0  0
 11 10  1  6  0  0  0
 11 13  1  0  0  0  0
 11 12  1  0  0  0  0
 12 14  1  0  0  0  0
 13 16  1  0  0  0  0
 14 18  1  0  0  0  0
 15 19  1  0  0  0  0
 15 13  2  0  0  0  0
 16 21  2  0  0  0  0
 16 20  1  0  0  0  0
 17 14  2  0  0  0  0
 17 22  1  0  0  0  0
 18 23  2  0  0  0  0
 18 20  1  0  0  0  0
 19 24  2  0  0  0  0
 22 25  2  0  0  0  0
 24 21  1  0  0  0  0
 25 23  1  0  0  0  0
 26 12  1  0  0  0  0
 27 28  1  0  0  0  0
 29 27  2  0  0  0  0
M  END
>  <minimizedAffinity>
-9.36265087

>  <CNNscore>
0.531978846

>  <CNNaffinity>
6.82601404

$$$$

 OpenBabel08262621333D

 29 32  0  0  1  0  0  0  0  0999 V2000
   96.5650   98.9380  102.8440 C   0  0  0  0  0  0  0  0  0  0  0  0
   95.4150   99.8950  102.4680 C   0  0  0  0  0  0  0  0  0  0  0  0
   94.2070   99.0570  102.0380 C   0  0  0  0  0  0  0  0  0  0  0  0
   95.0890  100.7920  103.6860 C   0  0  0  0  0  0  0  0  0  0  0  0
   96.0660  100.8310  104.8130 N   0  0  0  0  0  0  0  0  0  0  0  0
   95.9550  102.1080  105.5640 C   0  0  0  0  0  0  0  0  0  0  0  0
   97.4300  100.6800  104.2700 C   0  0  0  0  0  0  0  0  0  0  0  0
   97.0190  102.2810  106.6660 C   0  0  0  0  0  0  0  0  0  0  0  0
   98.5010  100.7850  105.3670 C   0  0  0  0  0  0  0  0  0  0  0  0
   98.3860  102.1020  106.0560 N   0  0  0  0  0  0  0  0  0  0  0  0
   99.2600  103.1200  105.9750 C   0  0  2  0  0  0  0  0  0  0  0  0
  100.2000  103.1180  105.0320 N   0  0  0  0  0  0  0  0  0  0  0  0
   99.2610  104.1470  107.0510 C   0  0  0  0  0  0  0  0  0  0  0  0
  101.0550  104.1440  104.7400 C   0  0  0  0  0  0  0  0  0  0  0  0
   99.1610  103.7710  108.4060 C   0  0  0  0  0  0  0  0  0  0  0  0
   99.3860  105.5060  106.7670 C   0  0  0  0  0  0  0  0  0  0  0  0
  102.2470  103.8190  104.0730 C   0  0  0  0  0  0  0  0  0  0  0  0
  100.7770  105.5030  104.9540 C   0  0  0  0  0  0  0  0  0  0  0  0
   99.1080  104.7310  109.4200 C   0  0  0  0  0  0  0  0  0  0  0  0
   99.5850  105.9380  105.4840 O   0  0  0  0  0  0  0  0  0  0  0  0
   99.3150  106.4750  107.7710 C   0  0  0  0  0  0  0  0  0  0  0  0
  103.1460  104.8120  103.6710 C   0  0  0  0  0  0  0  0  0  0  0  0
  101.6650  106.5010  104.5360 C   0  0  0  0  0  0  0  0  0  0  0  0
   99.1730  106.0840  109.1000 C   0  0  0  0  0  0  0  0  0  0  0  0
  102.8540  106.1530  103.9040 C   0  0  0  0  0  0  0  0  0  0  0  0
  100.2520  102.3220  104.4190 H   0  0  0  0  0  0  0  0  0  0  0  0
   96.0480  100.7380  101.3320 C   0  0  0  0  0  0  0  0  0  0  0  0
   95.5830  101.9070  101.1920 O   0  0  0  0  0  0  0  0  0  0  0  0
   96.9090  100.1490  100.6210 O   0  0  0  0  0  0  0  0  0  0  0  0
  2  1  1  0  0  0  0
  2  4  1  0  0  0  0
  3  2  1  0  0  0  0
  4  5  1  0  0  0  0
  5  6  1  0  0  0  0
  6  8  1  0  0  0  0
  7  5  1  0  0  0  0
  7  9  1  0  0  0  0
  9 10  1  0  0  0  0
 10  8  1  0  0  0  0
 11 10  1  1  0  0  0
 11 13  1  0  0  0  0
 12 11  1  0  0  0  0
 13 15  1  0  0  0  0
 14 18  1  0  0  0  0
 14 12  1  0  0  0  0
 15 19  2  0  0  0  0
 16 13  2  0  0  0  0
 16 21  1  0  0  0  0
 17 14  2  0  0  0  0
 18 20  1  0  0  0  0
 20 16  1  0  0  0  0
 21 24  2  0  0  0  0
 22 25  2  0  0  0  0
 22 17  1  0  0  0  0
 23 18  2  0  0  0  0
 24 19  1  0  0  0  0
 25 23  1  0  0  0  0
 26 12  1  0  0  0  0
 27  2  1  0  0  0  0
 28 27  1  0  0  0  0
 29 27  2  0  0  0  0
M  END
>  <minimizedAffinity>
-9.16778469

>  <CNNscore>
0.530353725

>  <CNNaffinity>
6.42233133

$$$$

 OpenBabel08262621333D

 29 32  0  0  1  0  0  0  0  0999 V2000
   93.8880   99.0610  103.7230 C   0  0  0  0  0  0  0  0  0  0  0  0
   93.8970  100.0640  102.5520 C   0  0  0  0  0  0  0  0  0  0  0  0
   92.4540  100.4960  102.2710 C   0  0  0  0  0  0  0  0  0  0  0  0
   94.7950  101.2670  102.9270 C   0  0  0  0  0  0  0  0  0  0  0  0
   95.7010  101.1300  104.1040 N   0  0  0  0  0  0  0  0  0  0  0  0
   95.6280  102.3350  104.9700 C   0  0  0  0  0  0  0  0  0  0  0  0
   97.0840  100.9350  103.6230 C   0  0  0  0  0  0  0  0  0  0  0  0
   96.6320  102.3260  106.1400 C   0  0  0  0  0  0  0  0  0  0  0  0
   98.0900  100.8600  104.7820 C   0  0  0  0  0  0  0  0  0  0  0  0
   98.0190  102.1100  105.5900 N   0  0  0  0  0  0  0  0  0  0  0  0
   98.9600  103.0660  105.6590 C   0  0  2  0  0  0  0  0  0  0  0  0
   99.9540  103.0880  104.7720 N   0  0  0  0  0  0  0  0  0  0  0  0
   98.9630  103.9840  106.8300 C   0  0  0  0  0  0  0  0  0  0  0  0
  100.8910  104.0740  104.6310 C   0  0  0  0  0  0  0  0  0  0  0  0
   98.7550  103.4880  108.1330 C   0  0  0  0  0  0  0  0  0  0  0  0
   99.1920  105.3510  106.6890 C   0  0  0  0  0  0  0  0  0  0  0  0
  102.0970  103.7310  104.0010 C   0  0  0  0  0  0  0  0  0  0  0  0
  100.6890  105.4230  104.9630 C   0  0  0  0  0  0  0  0  0  0  0  0
   98.7040  104.3490  109.2330 C   0  0  0  0  0  0  0  0  0  0  0  0
   99.4980  105.8880  105.4680 O   0  0  0  0  0  0  0  0  0  0  0  0
   99.1240  106.2230  107.7780 C   0  0  0  0  0  0  0  0  0  0  0  0
  103.0820  104.6910  103.7490 C   0  0  0  0  0  0  0  0  0  0  0  0
  101.6630  106.3910  104.6950 C   0  0  0  0  0  0  0  0  0  0  0  0
   98.8760  105.7180  109.0520 C   0  0  0  0  0  0  0  0  0  0  0  0
  102.8640  106.0210  104.0980 C   0  0  0  0  0  0  0  0  0  0  0  0
   99.9920  102.3530  104.0880 H   0  0  0  0  0  0  0  0  0  0  0  0
   94.5510   99.2360  101.4170 C   0  0  0  0  0  0  0  0  0  0  0  0
   95.2610   99.8910  100.5990 O   0  0  0  0  0  0  0  0  0  0  0  0
   94.2510   98.0100  101.3840 O   0  0  0  0  0  0  0  0  0  0  0  0
  2  4  1  0  0  0  0
  2  1  1  0  0  0  0
  3  2  1  0  0  0  0
  4  5  1  0  0  0  0
  5  6  1  0  0  0  0
  6  8  1  0  0  0  0
  7  5  1  0  0  0  0
  7  9  1  0  0  0  0
  9 10  1  0  0  0  0
 10  8  1  0  0  0  0
 11 10  1  1  0  0  0
 11 13  1  0  0  0  0
 12 11  1  0  0  0  0
 13 15  1  0  0  0  0
 14 12  1  0  0  0  0
 14 18  1  0  0  0  0
 15 19  2  0  0  0  0
 16 13  2  0  0  0  0
 16 21  1  0  0  0  0
 17 14  2  0  0  0  0
 18 20  1  0  0  0  0
 20 16  1  0  0  0  0
 21 24  2  0  0  0  0
 22 17  1  0  0  0  0
 22 25  2  0  0  0  0
 23 18  2  0  0  0  0
 24 19  1  0  0  0  0
 25 23  1  0  0  0  0
 26 12  1  0  0  0  0
 27  2  1  0  0  0  0
 28 27  2  0  0  0  0
 29 27  1  0  0  0  0
M  END
>  <minimizedAffinity>
-8.94081974

>  <CNNscore>
0.464851826

>  <CNNaffinity>
6.35208321

$$$$

 OpenBabel08262621333D

 29 32  0  0  1  0  0  0  0  0999 V2000
   95.1480  102.3380  101.3360 C   0  0  0  0  0  0  0  0  0  0  0  0
   95.4250  100.9250  101.8860 C   0  0  0  0  0  0  0  0  0  0  0  0
   96.9370  100.6840  101.8710 C   0  0  0  0  0  0  0  0  0  0  0  0
   94.8390  100.8170  103.3140 C   0  0  0  0  0  0  0  0  0  0  0  0
   95.7900  100.7820  104.4640 N   0  0  0  0  0  0  0  0  0  0  0  0
   95.7040  102.0340  105.2580 C   0  0  0  0  0  0  0  0  0  0  0  0
   97.1610  100.6030  103.9460 C   0  0  0  0  0  0  0  0  0  0  0  0
   96.7470  102.1300  106.3890 C   0  0  0  0  0  0  0  0  0  0  0  0
   98.2070  100.6310  105.0710 C   0  0  0  0  0  0  0  0  0  0  0  0
   98.1210  101.9250  105.8040 N   0  0  0  0  0  0  0  0  0  0  0  0
   99.0310  102.9140  105.7810 C   0  0  2  0  0  0  0  0  0  0  0  0
   99.9930  102.9130  104.8600 N   0  0  0  0  0  0  0  0  0  0  0  0
   99.0410  103.9010  106.8940 C   0  0  0  0  0  0  0  0  0  0  0  0
  100.8900  103.9180  104.6260 C   0  0  0  0  0  0  0  0  0  0  0  0
   98.8960  103.4800  108.2320 C   0  0  0  0  0  0  0  0  0  0  0  0
   99.2190  105.2640  106.6630 C   0  0  0  0  0  0  0  0  0  0  0  0
  102.0850  103.5760  103.9750 C   0  0  0  0  0  0  0  0  0  0  0  0
  100.6530  105.2780  104.8840 C   0  0  0  0  0  0  0  0  0  0  0  0
   98.8520  104.4040  109.2790 C   0  0  0  0  0  0  0  0  0  0  0  0
   99.4640  105.7340  105.4020 O   0  0  0  0  0  0  0  0  0  0  0  0
   99.1580  106.1980  107.7000 C   0  0  0  0  0  0  0  0  0  0  0  0
  103.0270  104.5500  103.6300 C   0  0  0  0  0  0  0  0  0  0  0  0
  101.5840  106.2590  104.5230 C   0  0  0  0  0  0  0  0  0  0  0  0
   98.9700  105.7650  109.0100 C   0  0  0  0  0  0  0  0  0  0  0  0
  102.7760  105.8920  103.9060 C   0  0  0  0  0  0  0  0  0  0  0  0
  100.0330  102.1390  104.2200 H   0  0  0  0  0  0  0  0  0  0  0  0
   94.6240  100.0300  100.9060 C   0  0  0  0  0  0  0  0  0  0  0  0
   94.9230   98.8000  100.9170 O   0  0  0  0  0  0  0  0  0  0  0  0
   93.8090  100.6290  100.1510 O   0  0  0  0  0  0  0  0  0  0  0  0
  1  2  1  0  0  0  0
  2  4  1  0  0  0  0
  3  2  1  0  0  0  0
  4  5  1  0  0  0  0
  5  6  1  0  0  0  0
  6  8  1  0  0  0  0
  7  5  1  0  0  0  0
  7  9  1  0  0  0  0
  9 10  1  0  0  0  0
 10  8  1  0  0  0  0
 11 10  1  1  0  0  0
 11 13  1  0  0  0  0
 12 11  1  0  0  0  0
 13 15  1  0  0  0  0
 14 12  1  0  0  0  0
 14 18  1  0  0  0  0
 15 19  2  0  0  0  0
 16 13  2  0  0  0  0
 16 21  1  0  0  0  0
 17 14  2  0  0  0  0
 18 20  1  0  0  0  0
 20 16  1  0  0  0  0
 21 24  2  0  0  0  0
 22 25  2  0  0  0  0
 22 17  1  0  0  0  0
 23 18  2  0  0  0  0
 24 19  1  0  0  0  0
 25 23  1  0  0  0  0
 26 12  1  0  0  0  0
 27 28  1  0  0  0  0
 27  2  1  0  0  0  0
 29 27  2  0  0  0  0
M  END
>  <minimizedAffinity>
-9.23829365

>  <CNNscore>
0.451056659

>  <CNNaffinity>
6.35476351

$$$$

 OpenBabel08262621333D

 29 32  0  0  1  0  0  0  0  0999 V2000
   96.8550  103.1270  108.5390 C   0  0  0  0  0  0  0  0  0  0  0  0
   97.4290  103.7330  107.2430 C   0  0  0  0  0  0  0  0  0  0  0  0
   98.6080  102.8690  106.7830 C   0  0  0  0  0  0  0  0  0  0  0  0
   96.3100  103.7930  106.1770 C   0  0  0  0  0  0  0  0  0  0  0  0
   96.3020  102.7560  105.1050 N   0  0  0  0  0  0  0  0  0  0  0  0
   95.3030  103.0880  104.0570 C   0  0  0  0  0  0  0  0  0  0  0  0
   95.9850  101.4460  105.7090 C   0  0  0  0  0  0  0  0  0  0  0  0
   95.1430  101.9980  102.9780 C   0  0  0  0  0  0  0  0  0  0  0  0
   95.8860  100.3350  104.6510 C   0  0  0  0  0  0  0  0  0  0  0  0
   94.8370  100.6860  103.6530 N   0  0  0  0  0  0  0  0  0  0  0  0
   93.6480  100.0760  103.5020 C   0  0  2  0  0  0  0  0  0  0  0  0
   93.2000   99.2470  104.4430 N   0  0  0  0  0  0  0  0  0  0  0  0
   92.9350  100.2140  102.2040 C   0  0  0  0  0  0  0  0  0  0  0  0
   91.9580   98.6770  104.4940 C   0  0  0  0  0  0  0  0  0  0  0  0
   93.6330  100.1070  100.9840 C   0  0  0  0  0  0  0  0  0  0  0  0
   91.5580  100.4280  102.1430 C   0  0  0  0  0  0  0  0  0  0  0  0
   91.8190   97.5060  105.2550 C   0  0  0  0  0  0  0  0  0  0  0  0
   90.7970   99.2370  103.9390 C   0  0  0  0  0  0  0  0  0  0  0  0
   92.9800  100.2870   99.7610 C   0  0  0  0  0  0  0  0  0  0  0  0
   90.8020  100.4450  103.2820 O   0  0  0  0  0  0  0  0  0  0  0  0
   90.9000  100.6280  100.9270 C   0  0  0  0  0  0  0  0  0  0  0  0
   90.5710   96.8950  105.4220 C   0  0  0  0  0  0  0  0  0  0  0  0
   89.5440   98.6400  104.1200 C   0  0  0  0  0  0  0  0  0  0  0  0
   91.6160  100.5600   99.7340 C   0  0  0  0  0  0  0  0  0  0  0  0
   89.4350   97.4630  104.8530 C   0  0  0  0  0  0  0  0  0  0  0  0
   93.7920   99.0700  105.2360 H   0  0  0  0  0  0  0  0  0  0  0  0
   97.8210  105.1630  107.6950 C   0  0  0  0  0  0  0  0  0  0  0  0
   99.0350  105.3240  108.0160 O   0  0  0  0  0  0  0  0  0  0  0  0
   96.8770  105.9980  107.7650 O   0  0  0  0  0  0  0  0  0  0  0  0
  2 27  1  0  0  0  0
  2  1  1  0  0  0  0
  3  2  1  0  0  0  0
  4  2  1  0  0  0  0
  5  7  1  0  0  0  0
  5  4  1  0  0  0  0
  6  5  1  0  0  0  0
  8 10  1  0  0  0  0
  8  6  1  0  0  0  0
  9  7  1  0  0  0  0
 10  9  1  0  0  0  0
 11 10  1  6  0  0  0
 11 12  1  0  0  0  0
 12 14  1  0  0  0  0
 12 26  1  0  0  0  0
 13 11  1  0  0  0  0
 14 17  1  0  0  0  0
 15 13  2  0  0  0  0
 16 13  1  0  0  0  0
 16 20  1  0  0  0  0
 17 22  2  0  0  0  0
 18 23  1  0  0  0  0
 18 14  2  0  0  0  0
 19 15  1  0  0  0  0
 20 18  1  0  0  0  0
 21 16  2  0  0  0  0
 23 25  2  0  0  0  0
 24 19  2  0  0  0  0
 24 21  1  0  0  0  0
 25 22  1  0  0  0  0
 27 29  2  0  0  0  0
 27 28  1  0  0  0  0
M  END
>  <minimizedAffinity>
-7.88331842

>  <CNNscore>
0.438249826

>  <CNNaffinity>
5.80744934

$$$$

 OpenBabel08262621333D

 29 32  0  0  1  0  0  0  0  0999 V2000
  101.1770  100.3930  102.7110 C   0  0  0  0  0  0  0  0  0  0  0  0
  100.4800  100.3630  104.0860 C   0  0  0  0  0  0  0  0  0  0  0  0
  100.0960  101.7960  104.4680 C   0  0  0  0  0  0  0  0  0  0  0  0
   99.2430   99.4390  104.0030 C   0  0  0  0  0  0  0  0  0  0  0  0
   98.0010   99.8570  104.7170 N   0  0  0  0  0  0  0  0  0  0  0  0
   97.0430   98.7270  104.8160 C   0  0  0  0  0  0  0  0  0  0  0  0
   97.3850  100.9820  103.9860 C   0  0  0  0  0  0  0  0  0  0  0  0
   95.6810   99.1130  105.4280 C   0  0  0  0  0  0  0  0  0  0  0  0
   96.0570  101.4210  104.6230 C   0  0  0  0  0  0  0  0  0  0  0  0
   95.1100  100.2720  104.6520 N   0  0  0  0  0  0  0  0  0  0  0  0
   93.9940  100.1430  103.9130 C   0  0  2  0  0  0  0  0  0  0  0  0
   93.7850  100.9500  102.8750 N   0  0  0  0  0  0  0  0  0  0  0  0
   92.9340   99.2070  104.3770 C   0  0  0  0  0  0  0  0  0  0  0  0
   92.7790  100.8410  101.9550 C   0  0  0  0  0  0  0  0  0  0  0  0
   92.5610   99.1590  105.7360 C   0  0  0  0  0  0  0  0  0  0  0  0
   92.2590   98.3670  103.4920 C   0  0  0  0  0  0  0  0  0  0  0  0
   92.4340  101.9980  101.2380 C   0  0  0  0  0  0  0  0  0  0  0  0
   92.1480   99.6390  101.5960 C   0  0  0  0  0  0  0  0  0  0  0  0
   91.6040   98.2460  106.1890 C   0  0  0  0  0  0  0  0  0  0  0  0
   92.5000   98.4290  102.1470 O   0  0  0  0  0  0  0  0  0  0  0  0
   91.3160   97.4380  103.9370 C   0  0  0  0  0  0  0  0  0  0  0  0
   91.4670  101.9630  100.2280 C   0  0  0  0  0  0  0  0  0  0  0  0
   91.1950   99.5960  100.5730 C   0  0  0  0  0  0  0  0  0  0  0  0
   90.9920   97.3780  105.2910 C   0  0  0  0  0  0  0  0  0  0  0  0
   90.8470  100.7610   99.8980 C   0  0  0  0  0  0  0  0  0  0  0  0
   94.4630  101.6690  102.6920 H   0  0  0  0  0  0  0  0  0  0  0  0
  101.5680   99.7290  104.9900 C   0  0  0  0  0  0  0  0  0  0  0  0
  101.5670   98.4640  105.0440 O   0  0  0  0  0  0  0  0  0  0  0  0
  102.2930  100.5380  105.6330 O   0  0  0  0  0  0  0  0  0  0  0  0
  1  2  1  0  0  0  0
  2  3  1  0  0  0  0
  2 27  1  0  0  0  0
  4  2  1  0  0  0  0
  4  5  1  0  0  0  0
  5  6  1  0  0  0  0
  6  8  1  0  0  0  0
  7  9  1  0  0  0  0
  7  5  1  0  0  0  0
  9 10  1  0  0  0  0
 10  8  1  0  0  0  0
 11 13  1  0  0  0  0
 11 10  1  1  0  0  0
 12 11  1  0  0  0  0
 13 15  1  0  0  0  0
 14 12  1  0  0  0  0
 15 19  2  0  0  0  0
 16 21  1  0  0  0  0
 16 13  2  0  0  0  0
 17 14  2  0  0  0  0
 18 14  1  0  0  0  0
 18 20  1  0  0  0  0
 20 16  1  0  0  0  0
 21 24  2  0  0  0  0
 22 17  1  0  0  0  0
 23 18  2  0  0  0  0
 24 19  1  0  0  0  0
 25 22  2  0  0  0  0
 25 23  1  0  0  0  0
 26 12  1  0  0  0  0
 27 28  2  0  0  0  0
 27 29  1  0  0  0  0
M  END
>  <minimizedAffinity>
-6.58375835

>  <CNNscore>
0.406070173

>  <CNNaffinity>
5.75335312

$$$$
