
 OpenBabel08262621053D

 33 34  0  0  1  0  0  0  0  0999 V2000
  100.4320  101.8020  104.5630 C   0  0  0  0  0  0  0  0  0  0  0  0
   98.9380  101.3910  104.4950 C   0  0  2  0  0  0  0  0  0  0  0  0
   98.2660  102.9390  106.4710 C   0  0  1  0  0  0  0  0  0  0  0  0
   97.3520  103.0600  107.6970 C   0  0  0  0  0  0  0  0  0  0  0  0
   98.1510  101.5210  105.8350 C   0  0  1  0  0  0  0  0  0  0  0  0
   95.8760  102.7620  107.4020 C   0  0  2  0  0  0  0  0  0  0  0  0
   96.6850  101.1150  105.6660 C   0  0  0  0  0  0  0  0  0  0  0  0
   95.6910  101.6730  106.3810 C   0  0  0  0  0  0  0  0  0  0  0  0
   98.7170  100.0110  103.7980 C   0  0  2  0  0  0  0  0  0  0  0  0
   96.3680  100.0970  104.6870 C   0  0  0  0  0  0  0  0  0  0  0  0
   97.2720   99.5870  103.8440 C   0  0  0  0  0  0  0  0  0  0  0  0
   95.1100  104.0110  106.9620 C   0  0  0  0  0  0  0  0  0  0  0  0
   99.5680   98.8490  104.3060 C   0  0  0  0  0  0  0  0  0  0  0  0
   97.9640  103.9410  105.4760 O   0  0  0  0  0  0  0  0  0  0  0  0
   97.9760  105.2370  105.8960 C   0  0  0  0  0  0  0  0  0  0  0  0
   96.9930  105.9670  105.9100 O   0  0  0  0  0  0  0  0  0  0  0  0
   99.3860  105.6890  106.3040 C   0  0  0  0  0  0  0  0  0  0  0  0
  100.0780  106.4260  105.1380 C   0  0  0  0  0  0  0  0  0  0  0  0
  100.2290  104.4430  106.6250 C   0  0  0  0  0  0  0  0  0  0  0  0
   99.3040  106.6460  107.5150 C   0  0  0  0  0  0  0  0  0  0  0  0
   99.2110  105.9730  108.8800 C   0  0  0  0  0  0  0  0  0  0  0  0
  101.4760  100.6740  104.6400 C   0  0  0  0  0  0  0  0  0  0  0  0
  102.3340  100.7850  105.9080 C   0  0  1  0  0  0  0  0  0  0  0  0
  102.6040  102.1650  106.1500 O   0  0  0  0  0  0  0  0  0  0  0  0
  102.8580  102.2180  107.1020 H   0  0  0  0  0  0  0  0  0  0  0  0
  101.6220  100.1550  107.1160 C   0  0  0  0  0  0  0  0  0  0  0  0
  102.3930   98.9440  107.6600 C   0  0  1  0  0  0  0  0  0  0  0  0
  102.4640   97.9590  106.6160 O   0  0  0  0  0  0  0  0  0  0  0  0
  103.1160   97.2970  106.9720 H   0  0  0  0  0  0  0  0  0  0  0  0
  103.7990   99.3410  108.0980 C   0  0  0  0  0  0  0  0  0  0  0  0
  104.4460   98.0920  108.6850 C   0  0  0  0  0  0  0  0  0  0  0  0
  104.9340   97.3010  107.8250 O   0  0  0  0  0  0  0  0  0  0  0  0
  104.4010   97.9990  109.9410 O   0  0  0  0  0  0  0  0  0  0  0  0
  1 22  1  0  0  0  0
  2  1  1  1  0  0  0
  2  5  1  0  0  0  0
  3 14  1  6  0  0  0
  3  4  1  0  0  0  0
  5  7  1  6  0  0  0
  5  3  1  0  0  0  0
  6 12  1  6  0  0  0
  6  4  1  0  0  0  0
  7  8  2  0  0  0  0
  8  6  1  0  0  0  0
  9 11  1  0  0  0  0
  9 13  1  1  0  0  0
  9  2  1  0  0  0  0
 10  7  1  0  0  0  0
 11 10  2  0  0  0  0
 14 15  1  0  0  0  0
 15 16  2  0  0  0  0
 15 17  1  0  0  0  0
 17 19  1  0  0  0  0
 17 20  1  0  0  0  0
 18 17  1  0  0  0  0
 20 21  1  0  0  0  0
 23 22  1  6  0  0  0
 23 24  1  0  0  0  0
 23 26  1  0  0  0  0
 24 25  1  0  0  0  0
 27 26  1  6  0  0  0
 27 30  1  0  0  0  0
 28 29  1  0  0  0  0
 28 27  1  0  0  0  0
 30 31  1  0  0  0  0
 31 33  1  0  0  0  0
 32 31  2  0  0  0  0
M  END
>  <minimizedAffinity>
-8.82807541

>  <CNNscore>
0.910014391

>  <CNNaffinity>
7.43329811

$$$$

 OpenBabel08262621053D

 33 34  0  0  1  0  0  0  0  0999 V2000
  100.9440  102.0970  105.6940 C   0  0  0  0  0  0  0  0  0  0  0  0
  100.1020  101.7500  104.4390 C   0  0  2  0  0  0  0  0  0  0  0  0
   97.8680  102.4710  105.5530 C   0  0  1  0  0  0  0  0  0  0  0  0
   96.3740  102.1420  105.6640 C   0  0  0  0  0  0  0  0  0  0  0  0
   98.6120  101.3860  104.7180 C   0  0  1  0  0  0  0  0  0  0  0  0
   95.6700  101.9840  104.3100 C   0  0  2  0  0  0  0  0  0  0  0  0
   97.8570  101.0820  103.4210 C   0  0  0  0  0  0  0  0  0  0  0  0
   96.5460  101.3470  103.2660 C   0  0  0  0  0  0  0  0  0  0  0  0
  100.8070  100.7250  103.4960 C   0  0  2  0  0  0  0  0  0  0  0  0
   98.5960  100.4970  102.3230 C   0  0  0  0  0  0  0  0  0  0  0  0
   99.9220  100.3250  102.3440 C   0  0  0  0  0  0  0  0  0  0  0  0
   95.1290  103.3130  103.7810 C   0  0  0  0  0  0  0  0  0  0  0  0
  101.3350   99.4500  104.1520 C   0  0  0  0  0  0  0  0  0  0  0  0
   98.0870  103.7710  104.9630 O   0  0  0  0  0  0  0  0  0  0  0  0
   97.7980  104.8500  105.7430 C   0  0  0  0  0  0  0  0  0  0  0  0
   96.7100  105.4110  105.7680 O   0  0  0  0  0  0  0  0  0  0  0  0
   99.0180  105.3080  106.5540 C   0  0  0  0  0  0  0  0  0  0  0  0
   98.8100  106.7440  107.0820 C   0  0  0  0  0  0  0  0  0  0  0  0
  100.2460  105.3330  105.6270 C   0  0  0  0  0  0  0  0  0  0  0  0
   99.2370  104.3660  107.7600 C   0  0  0  0  0  0  0  0  0  0  0  0
   99.4050  105.0540  109.1100 C   0  0  0  0  0  0  0  0  0  0  0  0
  101.3750  100.9320  106.6030 C   0  0  0  0  0  0  0  0  0  0  0  0
  102.7080  101.2280  107.3070 C   0  0  1  0  0  0  0  0  0  0  0  0
  102.4410  102.0230  108.4610 O   0  0  0  0  0  0  0  0  0  0  0  0
  103.2330  101.9170  109.0390 H   0  0  0  0  0  0  0  0  0  0  0  0
  103.4250   99.9270  107.7030 C   0  0  0  0  0  0  0  0  0  0  0  0
  102.4580   98.7360  107.7380 C   0  0  1  0  0  0  0  0  0  0  0  0
  102.8010   97.8550  106.6540 O   0  0  0  0  0  0  0  0  0  0  0  0
  102.2630   97.0400  106.8450 H   0  0  0  0  0  0  0  0  0  0  0  0
  102.5530   97.9900  109.0650 C   0  0  0  0  0  0  0  0  0  0  0  0
  104.0370   97.7790  109.3460 C   0  0  0  0  0  0  0  0  0  0  0  0
  104.6430   97.0950  108.4690 O   0  0  0  0  0  0  0  0  0  0  0  0
  104.4640   98.2950  110.4130 O   0  0  0  0  0  0  0  0  0  0  0  0
  1 22  1  0  0  0  0
  2  5  1  0  0  0  0
  2  1  1  1  0  0  0
  3 14  1  6  0  0  0
  3  4  1  0  0  0  0
  5  7  1  6  0  0  0
  5  3  1  0  0  0  0
  6 12  1  6  0  0  0
  6  4  1  0  0  0  0
  8  7  2  0  0  0  0
  8  6  1  0  0  0  0
  9 13  1  1  0  0  0
  9  2  1  0  0  0  0
 10 11  2  0  0  0  0
 10  7  1  0  0  0  0
 11  9  1  0  0  0  0
 14 15  1  0  0  0  0
 15 16  2  0  0  0  0
 15 17  1  0  0  0  0
 17 18  1  0  0  0  0
 17 20  1  0  0  0  0
 19 17  1  0  0  0  0
 20 21  1  0  0  0  0
 23 22  1  1  0  0  0
 23 26  1  0  0  0  0
 23 24  1  0  0  0  0
 24 25  1  0  0  0  0
 27 26  1  1  0  0  0
 27 30  1  0  0  0  0
 28 29  1  0  0  0  0
 28 27  1  0  0  0  0
 30 31  1  0  0  0  0
 31 33  1  0  0  0  0
 32 31  2  0  0  0  0
M  END
>  <minimizedAffinity>
-8.04311752

>  <CNNscore>
0.858935058

>  <CNNaffinity>
7.45709991

$$$$

 OpenBabel08262621053D

 33 34  0  0  1  0  0  0  0  0999 V2000
  101.2440  101.5190  104.4190 C   0  0  0  0  0  0  0  0  0  0  0  0
  100.0260  101.3130  103.4830 C   0  0  2  0  0  0  0  0  0  0  0  0
   98.3240  102.1320  105.2670 C   0  0  1  0  0  0  0  0  0  0  0  0
   96.9150  101.9100  105.8310 C   0  0  0  0  0  0  0  0  0  0  0  0
   98.6690  101.0460  104.2040 C   0  0  1  0  0  0  0  0  0  0  0  0
   95.8140  101.8880  104.7630 C   0  0  2  0  0  0  0  0  0  0  0  0
   97.5240  100.8780  103.2020 C   0  0  0  0  0  0  0  0  0  0  0  0
   96.2610  101.2500  103.4760 C   0  0  0  0  0  0  0  0  0  0  0  0
  100.3060  100.2950  102.3320 C   0  0  2  0  0  0  0  0  0  0  0  0
   97.8290  100.3050  101.9080 C   0  0  0  0  0  0  0  0  0  0  0  0
   99.0750  100.0330  101.5050 C   0  0  0  0  0  0  0  0  0  0  0  0
   95.2580  103.2840  104.4760 C   0  0  0  0  0  0  0  0  0  0  0  0
  100.8940   98.9470  102.7450 C   0  0  0  0  0  0  0  0  0  0  0  0
   98.4650  103.4450  104.6810 O   0  0  0  0  0  0  0  0  0  0  0  0
   98.3230  104.5050  105.5240 C   0  0  0  0  0  0  0  0  0  0  0  0
   97.2650  105.0890  105.7250 O   0  0  0  0  0  0  0  0  0  0  0  0
   99.6610  104.9130  106.1560 C   0  0  0  0  0  0  0  0  0  0  0  0
  100.7870  104.8940  105.1000 C   0  0  0  0  0  0  0  0  0  0  0  0
  100.0290  103.8840  107.2390 C   0  0  0  0  0  0  0  0  0  0  0  0
   99.5570  106.3400  106.7410 C   0  0  0  0  0  0  0  0  0  0  0  0
  100.4010  107.4000  106.0420 C   0  0  0  0  0  0  0  0  0  0  0  0
  101.6780  100.3270  105.2910 C   0  0  0  0  0  0  0  0  0  0  0  0
  102.5640  100.7770  106.4610 C   0  0  1  0  0  0  0  0  0  0  0  0
  102.7080  102.1950  106.3990 O   0  0  0  0  0  0  0  0  0  0  0  0
  102.9880  102.4690  107.3040 H   0  0  0  0  0  0  0  0  0  0  0  0
  101.9560  100.3570  107.8100 C   0  0  0  0  0  0  0  0  0  0  0  0
  102.6500   99.1120  108.3800 C   0  0  1  0  0  0  0  0  0  0  0  0
  102.1370   97.9610  107.6890 O   0  0  0  0  0  0  0  0  0  0  0  0
  102.7480   97.2310  107.9780 H   0  0  0  0  0  0  0  0  0  0  0  0
  104.1630   99.1970  108.2000 C   0  0  0  0  0  0  0  0  0  0  0  0
  104.7140   97.7980  108.4470 C   0  0  0  0  0  0  0  0  0  0  0  0
  104.1600   97.1780  109.4030 O   0  0  0  0  0  0  0  0  0  0  0  0
  105.6530   97.4430  107.6860 O   0  0  0  0  0  0  0  0  0  0  0  0
  1 22  1  0  0  0  0
  2  5  1  0  0  0  0
  2  1  1  1  0  0  0
  3 14  1  6  0  0  0
  3  4  1  0  0  0  0
  5  7  1  6  0  0  0
  5  3  1  0  0  0  0
  6 12  1  6  0  0  0
  6  4  1  0  0  0  0
  7  8  2  0  0  0  0
  8  6  1  0  0  0  0
  9 13  1  1  0  0  0
  9  2  1  0  0  0  0
 10  7  1  0  0  0  0
 11 10  2  0  0  0  0
 11  9  1  0  0  0  0
 14 15  1  0  0  0  0
 15 16  2  0  0  0  0
 15 17  1  0  0  0  0
 17 20  1  0  0  0  0
 17 19  1  0  0  0  0
 18 17  1  0  0  0  0
 21 20  1  0  0  0  0
 23 22  1  6  0  0  0
 23 26  1  0  0  0  0
 24 23  1  0  0  0  0
 24 25  1  0  0  0  0
 27 26  1  6  0  0  0
 28 29  1  0  0  0  0
 28 27  1  0  0  0  0
 30 27  1  0  0  0  0
 30 31  1  0  0  0  0
 31 32  1  0  0  0  0
 33 31  2  0  0  0  0
M  END
>  <minimizedAffinity>
-8.18298531

>  <CNNscore>
0.823102355

>  <CNNaffinity>
7.1502037

$$$$

 OpenBabel08262621053D

 33 34  0  0  1  0  0  0  0  0999 V2000
  100.6780  102.3840  106.8610 C   0  0  0  0  0  0  0  0  0  0  0  0
   99.1570  102.3310  107.1610 C   0  0  2  0  0  0  0  0  0  0  0  0
   98.5160  102.0940  104.6540 C   0  0  1  0  0  0  0  0  0  0  0  0
   97.4820  102.4950  103.5950 C   0  0  0  0  0  0  0  0  0  0  0  0
   98.2330  102.8190  106.0050 C   0  0  1  0  0  0  0  0  0  0  0  0
   96.0300  102.2260  104.0120 C   0  0  2  0  0  0  0  0  0  0  0  0
   96.7540  102.7090  106.3830 C   0  0  0  0  0  0  0  0  0  0  0  0
   95.7900  102.4550  105.4790 C   0  0  0  0  0  0  0  0  0  0  0  0
   98.7850  102.9660  108.5390 C   0  0  2  0  0  0  0  0  0  0  0  0
   96.3920  102.8770  107.7750 C   0  0  0  0  0  0  0  0  0  0  0  0
   97.2950  102.9990  108.7550 C   0  0  0  0  0  0  0  0  0  0  0  0
   95.5710  100.8170  103.6320 C   0  0  0  0  0  0  0  0  0  0  0  0
   99.3340  104.3650  108.8120 C   0  0  0  0  0  0  0  0  0  0  0  0
   98.5390  100.6660  104.8670 O   0  0  0  0  0  0  0  0  0  0  0  0
   98.8920   99.8980  103.7990 C   0  0  0  0  0  0  0  0  0  0  0  0
   98.0970   99.2730  103.1070 O   0  0  0  0  0  0  0  0  0  0  0  0
  100.4130   99.8690  103.5970 C   0  0  0  0  0  0  0  0  0  0  0  0
  101.0960   99.0730  104.7300 C   0  0  0  0  0  0  0  0  0  0  0  0
  100.9460  101.3110  103.6640 C   0  0  0  0  0  0  0  0  0  0  0  0
  100.7550   99.1990  102.2470 C   0  0  0  0  0  0  0  0  0  0  0  0
  101.2890  100.1330  101.1660 C   0  0  0  0  0  0  0  0  0  0  0  0
  101.6370  101.9340  107.9770 C   0  0  0  0  0  0  0  0  0  0  0  0
  102.1510  100.5070  107.7390 C   0  0  1  0  0  0  0  0  0  0  0  0
  103.2400  100.5680  106.8190 O   0  0  0  0  0  0  0  0  0  0  0  0
  103.7330   99.7220  106.9420 H   0  0  0  0  0  0  0  0  0  0  0  0
  102.5950   99.8500  109.0560 C   0  0  0  0  0  0  0  0  0  0  0  0
  102.6770   98.3230  108.9280 C   0  0  1  0  0  0  0  0  0  0  0  0
  102.5200   97.9860  107.5390 O   0  0  0  0  0  0  0  0  0  0  0  0
  102.7590   97.0200  107.5120 H   0  0  0  0  0  0  0  0  0  0  0  0
  104.0150   97.8010  109.4420 C   0  0  0  0  0  0  0  0  0  0  0  0
  105.0020   97.9050  108.2850 C   0  0  0  0  0  0  0  0  0  0  0  0
  105.4910   99.0610  108.1160 O   0  0  0  0  0  0  0  0  0  0  0  0
  105.1940   96.8400  107.6410 O   0  0  0  0  0  0  0  0  0  0  0  0
  1 22  1  0  0  0  0
  2  1  1  6  0  0  0
  2  9  1  0  0  0  0
  3 14  1  1  0  0  0
  3  5  1  0  0  0  0
  4  6  1  0  0  0  0
  4  3  1  0  0  0  0
  5  7  1  1  0  0  0
  5  2  1  0  0  0  0
  6 12  1  1  0  0  0
  6  8  1  0  0  0  0
  7 10  1  0  0  0  0
  8  7  2  0  0  0  0
  9 11  1  0  0  0  0
  9 13  1  6  0  0  0
 10 11  2  0  0  0  0
 15 14  1  0  0  0  0
 16 15  2  0  0  0  0
 17 19  1  0  0  0  0
 17 15  1  0  0  0  0
 17 18  1  0  0  0  0
 20 17  1  0  0  0  0
 21 20  1  0  0  0  0
 23 22  1  1  0  0  0
 23 26  1  0  0  0  0
 24 25  1  0  0  0  0
 24 23  1  0  0  0  0
 27 26  1  6  0  0  0
 27 30  1  0  0  0  0
 28 27  1  0  0  0  0
 29 28  1  0  0  0  0
 31 30  1  0  0  0  0
 32 31  1  0  0  0  0
 33 31  2  0  0  0  0
M  END
>  <minimizedAffinity>
-8.33588123

>  <CNNscore>
0.805415928

>  <CNNaffinity>
7.02427101

$$$$

 OpenBabel08262621053D

 33 34  0  0  1  0  0  0  0  0999 V2000
  100.4440  101.1600  103.9540 C   0  0  0  0  0  0  0  0  0  0  0  0
   98.8950  101.1990  104.0180 C   0  0  2  0  0  0  0  0  0  0  0  0
   98.8690  102.4330  106.3040 C   0  0  1  0  0  0  0  0  0  0  0  0
   98.1310  102.5480  107.6440 C   0  0  0  0  0  0  0  0  0  0  0  0
   98.2890  101.2630  105.4530 C   0  0  1  0  0  0  0  0  0  0  0  0
   96.6140  102.7350  107.5030 C   0  0  2  0  0  0  0  0  0  0  0  0
   96.7600  101.3200  105.4150 C   0  0  0  0  0  0  0  0  0  0  0  0
   96.0360  101.9720  106.3430 C   0  0  0  0  0  0  0  0  0  0  0  0
   98.2200  100.1070  103.1280 C   0  0  2  0  0  0  0  0  0  0  0  0
   96.0800  100.6520  104.3260 C   0  0  0  0  0  0  0  0  0  0  0  0
   96.7230  100.0970  103.2940 C   0  0  0  0  0  0  0  0  0  0  0  0
   96.2210  104.2090  107.3940 C   0  0  0  0  0  0  0  0  0  0  0  0
   98.7260   98.6770  103.3070 C   0  0  0  0  0  0  0  0  0  0  0  0
   98.8000  103.6620  105.5480 O   0  0  0  0  0  0  0  0  0  0  0  0
   99.8770  104.4910  105.6370 C   0  0  0  0  0  0  0  0  0  0  0  0
  101.0410  104.1230  105.5380 O   0  0  0  0  0  0  0  0  0  0  0  0
   99.4570  105.9390  105.9260 C   0  0  0  0  0  0  0  0  0  0  0  0
   99.1620  106.1280  107.4300 C   0  0  0  0  0  0  0  0  0  0  0  0
   98.1550  106.2370  105.1610 C   0  0  0  0  0  0  0  0  0  0  0  0
  100.5890  106.9100  105.5200 C   0  0  0  0  0  0  0  0  0  0  0  0
  100.6280  108.2310  106.2800 C   0  0  0  0  0  0  0  0  0  0  0  0
  101.1480   99.9270  104.5470 C   0  0  0  0  0  0  0  0  0  0  0  0
  102.0810  100.3120  105.7040 C   0  0  1  0  0  0  0  0  0  0  0  0
  102.3260  101.7160  105.6370 O   0  0  0  0  0  0  0  0  0  0  0  0
  102.6380  101.9700  106.5370 H   0  0  0  0  0  0  0  0  0  0  0  0
  101.4650   99.9370  107.0620 C   0  0  0  0  0  0  0  0  0  0  0  0
  102.2270   98.7840  107.7300 C   0  0  1  0  0  0  0  0  0  0  0  0
  102.7790   97.9570  106.6910 O   0  0  0  0  0  0  0  0  0  0  0  0
  103.3930   97.3510  107.1870 H   0  0  0  0  0  0  0  0  0  0  0  0
  103.3430   99.3110  108.6250 C   0  0  0  0  0  0  0  0  0  0  0  0
  104.3770   98.1970  108.7410 C   0  0  0  0  0  0  0  0  0  0  0  0
  103.9930   97.1930  109.4110 O   0  0  0  0  0  0  0  0  0  0  0  0
  105.4790   98.4190  108.1720 O   0  0  0  0  0  0  0  0  0  0  0  0
  1 22  1  0  0  0  0
  2  1  1  1  0  0  0
  2  5  1  0  0  0  0
  3 14  1  6  0  0  0
  3  4  1  0  0  0  0
  5  7  1  6  0  0  0
  5  3  1  0  0  0  0
  6 12  1  6  0  0  0
  6  4  1  0  0  0  0
  7  8  2  0  0  0  0
  8  6  1  0  0  0  0
  9 11  1  0  0  0  0
  9 13  1  1  0  0  0
  9  2  1  0  0  0  0
 10  7  1  0  0  0  0
 11 10  2  0  0  0  0
 14 15  1  0  0  0  0
 15 17  1  0  0  0  0
 16 15  2  0  0  0  0
 17 18  1  0  0  0  0
 19 17  1  0  0  0  0
 20 17  1  0  0  0  0
 20 21  1  0  0  0  0
 23 22  1  6  0  0  0
 23 26  1  0  0  0  0
 24 23  1  0  0  0  0
 24 25  1  0  0  0  0
 27 26  1  6  0  0  0
 27 30  1  0  0  0  0
 28 29  1  0  0  0  0
 28 27  1  0  0  0  0
 30 31  1  0  0  0  0
 31 32  1  0  0  0  0
 33 31  2  0  0  0  0
M  END
>  <minimizedAffinity>
-8.8952198

>  <CNNscore>
0.681219339

>  <CNNaffinity>
6.83536386

$$$$

 OpenBabel08262621053D

 33 34  0  0  1  0  0  0  0  0999 V2000
  100.1180  101.7070  104.2400 C   0  0  0  0  0  0  0  0  0  0  0  0
   99.8480  102.2120  105.6810 C   0  0  2  0  0  0  0  0  0  0  0  0
   97.8200  103.6650  104.9520 C   0  0  1  0  0  0  0  0  0  0  0  0
   97.0860  104.9880  105.2060 C   0  0  0  0  0  0  0  0  0  0  0  0
   99.1400  103.5980  105.7780 C   0  0  1  0  0  0  0  0  0  0  0  0
   96.7660  105.2460  106.6850 C   0  0  2  0  0  0  0  0  0  0  0  0
   98.8950  104.0030  107.2330 C   0  0  0  0  0  0  0  0  0  0  0  0
   97.8380  104.7450  107.6120 C   0  0  0  0  0  0  0  0  0  0  0  0
  101.1000  102.1090  106.6090 C   0  0  2  0  0  0  0  0  0  0  0  0
   99.8400  103.5540  108.2340 C   0  0  0  0  0  0  0  0  0  0  0  0
  100.8400  102.7060  107.9670 C   0  0  0  0  0  0  0  0  0  0  0  0
   95.4160  104.6550  107.0950 C   0  0  0  0  0  0  0  0  0  0  0  0
  102.3970  102.7080  106.0690 C   0  0  0  0  0  0  0  0  0  0  0  0
   96.9920  102.5240  105.2710 O   0  0  0  0  0  0  0  0  0  0  0  0
   95.9820  102.2450  104.4010 C   0  0  0  0  0  0  0  0  0  0  0  0
   95.2630  103.0910  103.8860 O   0  0  0  0  0  0  0  0  0  0  0  0
   95.8220  100.7330  104.1820 C   0  0  0  0  0  0  0  0  0  0  0  0
   94.6420  100.4460  103.2290 C   0  0  0  0  0  0  0  0  0  0  0  0
   95.4940  100.0720  105.5320 C   0  0  0  0  0  0  0  0  0  0  0  0
   97.1120  100.1490  103.5620 C   0  0  0  0  0  0  0  0  0  0  0  0
   97.2480  100.3150  102.0520 C   0  0  0  0  0  0  0  0  0  0  0  0
  100.8580  100.3660  104.0870 C   0  0  0  0  0  0  0  0  0  0  0  0
  100.6910   99.4830  105.3320 C   0  0  1  0  0  0  0  0  0  0  0  0
   99.7550   98.4500  105.0290 O   0  0  0  0  0  0  0  0  0  0  0  0
   99.9170   97.7460  105.7010 H   0  0  0  0  0  0  0  0  0  0  0  0
  102.0360   98.8800  105.7680 C   0  0  0  0  0  0  0  0  0  0  0  0
  102.1670   98.8370  107.2970 C   0  0  1  0  0  0  0  0  0  0  0  0
  102.0590   97.4660  107.7130 O   0  0  0  0  0  0  0  0  0  0  0  0
  102.3270   97.4970  108.6710 H   0  0  0  0  0  0  0  0  0  0  0  0
  103.5050   99.4150  107.7490 C   0  0  0  0  0  0  0  0  0  0  0  0
  104.2760   98.2770  108.4070 C   0  0  0  0  0  0  0  0  0  0  0  0
  104.1540   98.2210  109.6670 O   0  0  0  0  0  0  0  0  0  0  0  0
  104.9430   97.5500  107.6230 O   0  0  0  0  0  0  0  0  0  0  0  0
  2  1  1  6  0  0  0
  2  5  1  0  0  0  0
  2  9  1  0  0  0  0
  3  4  1  0  0  0  0
  3 14  1  1  0  0  0
  3  5  1  0  0  0  0
  4  6  1  0  0  0  0
  5  7  1  1  0  0  0
  6 12  1  1  0  0  0
  6  8  1  0  0  0  0
  7  8  2  0  0  0  0
  7 10  1  0  0  0  0
  9 13  1  6  0  0  0
  9 11  1  0  0  0  0
 11 10  2  0  0  0  0
 15 14  1  0  0  0  0
 16 15  2  0  0  0  0
 17 15  1  0  0  0  0
 17 19  1  0  0  0  0
 18 17  1  0  0  0  0
 20 17  1  0  0  0  0
 21 20  1  0  0  0  0
 22  1  1  0  0  0  0
 23 22  1  6  0  0  0
 23 26  1  0  0  0  0
 24 23  1  0  0  0  0
 24 25  1  0  0  0  0
 27 26  1  6  0  0  0
 27 28  1  0  0  0  0
 27 30  1  0  0  0  0
 28 29  1  0  0  0  0
 30 31  1  0  0  0  0
 31 32  1  0  0  0  0
 33 31  2  0  0  0  0
M  END
>  <minimizedAffinity>
-8.09217834

>  <CNNscore>
0.665387332

>  <CNNaffinity>
6.79934168

$$$$

 OpenBabel08262621053D

 33 34  0  0  1  0  0  0  0  0999 V2000
  100.1080  102.2020  104.8270 C   0  0  0  0  0  0  0  0  0  0  0  0
  101.0320  103.4470  104.8710 C   0  0  2  0  0  0  0  0  0  0  0  0
   99.1300  105.0180  105.6880 C   0  0  1  0  0  0  0  0  0  0  0  0
   98.5590  106.4370  105.5740 C   0  0  0  0  0  0  0  0  0  0  0  0
  100.3110  104.8180  104.6900 C   0  0  1  0  0  0  0  0  0  0  0  0
   99.5970  107.5440  105.7990 C   0  0  2  0  0  0  0  0  0  0  0  0
  101.2980  105.9850  104.7700 C   0  0  0  0  0  0  0  0  0  0  0  0
  100.9550  107.1920  105.2570 C   0  0  0  0  0  0  0  0  0  0  0  0
  102.2920  103.3040  103.9590 C   0  0  2  0  0  0  0  0  0  0  0  0
  102.6520  105.7660  104.3100 C   0  0  0  0  0  0  0  0  0  0  0  0
  103.1120  104.5670  103.9370 C   0  0  0  0  0  0  0  0  0  0  0  0
   99.7190  107.9310  107.2740 C   0  0  0  0  0  0  0  0  0  0  0  0
  102.0390  102.8780  102.5140 C   0  0  0  0  0  0  0  0  0  0  0  0
   99.5750  104.7260  107.0300 O   0  0  0  0  0  0  0  0  0  0  0  0
   98.6040  104.5790  107.9740 C   0  0  0  0  0  0  0  0  0  0  0  0
   98.2230  105.4750  108.7160 O   0  0  0  0  0  0  0  0  0  0  0  0
   98.0770  103.1370  108.0280 C   0  0  0  0  0  0  0  0  0  0  0  0
   97.2490  102.9110  109.3100 C   0  0  0  0  0  0  0  0  0  0  0  0
   99.2770  102.1760  108.0800 C   0  0  0  0  0  0  0  0  0  0  0  0
   97.1780  102.8570  106.8020 C   0  0  0  0  0  0  0  0  0  0  0  0
   95.7010  102.6320  107.1090 C   0  0  0  0  0  0  0  0  0  0  0  0
  100.7320  100.8720  104.3710 C   0  0  0  0  0  0  0  0  0  0  0  0
  100.8590   99.8790  105.5360 C   0  0  1  0  0  0  0  0  0  0  0  0
  100.7440   98.5560  105.0160 O   0  0  0  0  0  0  0  0  0  0  0  0
  101.1440   97.9700  105.7010 H   0  0  0  0  0  0  0  0  0  0  0  0
  102.1990  100.0550  106.2700 C   0  0  0  0  0  0  0  0  0  0  0  0
  102.4310   98.9390  107.2990 C   0  0  1  0  0  0  0  0  0  0  0  0
  102.9460   97.7930  106.6010 O   0  0  0  0  0  0  0  0  0  0  0  0
  103.2340   97.1900  107.3380 H   0  0  0  0  0  0  0  0  0  0  0  0
  103.4170   99.3820  108.3750 C   0  0  0  0  0  0  0  0  0  0  0  0
  104.3300   98.1930  108.6500 C   0  0  0  0  0  0  0  0  0  0  0  0
  103.8100   97.2880  109.3670 O   0  0  0  0  0  0  0  0  0  0  0  0
  105.4820   98.2670  108.1450 O   0  0  0  0  0  0  0  0  0  0  0  0
  2  1  1  6  0  0  0
  3 14  1  1  0  0  0
  4  3  1  0  0  0  0
  4  6  1  0  0  0  0
  5  7  1  1  0  0  0
  5  2  1  0  0  0  0
  5  3  1  0  0  0  0
  6 12  1  1  0  0  0
  7  8  2  0  0  0  0
  8  6  1  0  0  0  0
  9 13  1  6  0  0  0
  9  2  1  0  0  0  0
 10  7  1  0  0  0  0
 11  9  1  0  0  0  0
 11 10  2  0  0  0  0
 14 15  1  0  0  0  0
 15 17  1  0  0  0  0
 15 16  2  0  0  0  0
 17 19  1  0  0  0  0
 17 18  1  0  0  0  0
 20 21  1  0  0  0  0
 20 17  1  0  0  0  0
 22  1  1  0  0  0  0
 23 22  1  6  0  0  0
 23 26  1  0  0  0  0
 24 23  1  0  0  0  0
 24 25  1  0  0  0  0
 27 26  1  6  0  0  0
 27 30  1  0  0  0  0
 28 27  1  0  0  0  0
 28 29  1  0  0  0  0
 30 31  1  0  0  0  0
 31 32  1  0  0  0  0
 33 31  2  0  0  0  0
M  END
>  <minimizedAffinity>
-7.96545267

>  <CNNscore>
0.63629508

>  <CNNaffinity>
6.64070463

$$$$

 OpenBabel08262621053D

 33 34  0  0  1  0  0  0  0  0999 V2000
  101.3400  102.6820  105.5880 C   0  0  0  0  0  0  0  0  0  0  0  0
   99.9560  102.2740  105.0200 C   0  0  2  0  0  0  0  0  0  0  0  0
   98.6860  103.0350  107.1560 C   0  0  1  0  0  0  0  0  0  0  0  0
   97.5120  102.7030  108.0850 C   0  0  0  0  0  0  0  0  0  0  0  0
   98.8780  101.9160  106.0880 C   0  0  1  0  0  0  0  0  0  0  0  0
   96.1830  102.4790  107.3510 C   0  0  2  0  0  0  0  0  0  0  0  0
   97.5430  101.5480  105.4360 C   0  0  0  0  0  0  0  0  0  0  0  0
   96.3570  101.7990  106.0210 C   0  0  0  0  0  0  0  0  0  0  0  0
  100.0540  101.2090  103.8820 C   0  0  2  0  0  0  0  0  0  0  0  0
   97.5700  100.9160  104.1340 C   0  0  0  0  0  0  0  0  0  0  0  0
   98.6930  100.7520  103.4260 C   0  0  0  0  0  0  0  0  0  0  0  0
   95.4010  103.7800  107.1620 C   0  0  0  0  0  0  0  0  0  0  0  0
  100.8930   99.9700  104.1820 C   0  0  0  0  0  0  0  0  0  0  0  0
   98.5050  104.3070  106.4970 O   0  0  0  0  0  0  0  0  0  0  0  0
   99.1950  105.3620  107.0120 C   0  0  0  0  0  0  0  0  0  0  0  0
   99.5630  105.4420  108.1770 O   0  0  0  0  0  0  0  0  0  0  0  0
   99.4150  106.4640  105.9650 C   0  0  0  0  0  0  0  0  0  0  0  0
   98.2760  106.4560  104.9230 C   0  0  0  0  0  0  0  0  0  0  0  0
  100.7260  106.1760  105.2140 C   0  0  0  0  0  0  0  0  0  0  0  0
   99.4450  107.8480  106.6530 C   0  0  0  0  0  0  0  0  0  0  0  0
  100.6130  108.7480  106.2650 C   0  0  0  0  0  0  0  0  0  0  0  0
  102.3180  101.5520  105.9540 C   0  0  0  0  0  0  0  0  0  0  0  0
  102.3600  101.3120  107.4710 C   0  0  1  0  0  0  0  0  0  0  0  0
  101.9350  102.5050  108.1280 O   0  0  0  0  0  0  0  0  0  0  0  0
  101.6680  102.2230  109.0340 H   0  0  0  0  0  0  0  0  0  0  0  0
  101.4620  100.1290  107.8700 C   0  0  0  0  0  0  0  0  0  0  0  0
  102.2890   98.8870  108.2270 C   0  0  1  0  0  0  0  0  0  0  0  0
  102.2840   98.0080  107.0890 O   0  0  0  0  0  0  0  0  0  0  0  0
  102.9710   97.3280  107.3240 H   0  0  0  0  0  0  0  0  0  0  0  0
  103.7220   99.2660  108.5860 C   0  0  0  0  0  0  0  0  0  0  0  0
  104.5200   97.9690  108.6420 C   0  0  0  0  0  0  0  0  0  0  0  0
  104.0810   97.1200  109.4730 O   0  0  0  0  0  0  0  0  0  0  0  0
  105.5160   97.9110  107.8720 O   0  0  0  0  0  0  0  0  0  0  0  0
  1 22  1  0  0  0  0
  2  1  1  1  0  0  0
  2  5  1  0  0  0  0
  3 14  1  6  0  0  0
  3  4  1  0  0  0  0
  5  7  1  6  0  0  0
  5  3  1  0  0  0  0
  6 12  1  6  0  0  0
  6  4  1  0  0  0  0
  7  8  2  0  0  0  0
  8  6  1  0  0  0  0
  9 13  1  1  0  0  0
  9  2  1  0  0  0  0
 10  7  1  0  0  0  0
 11  9  1  0  0  0  0
 11 10  2  0  0  0  0
 14 15  1  0  0  0  0
 15 16  2  0  0  0  0
 17 20  1  0  0  0  0
 17 15  1  0  0  0  0
 18 17  1  0  0  0  0
 19 17  1  0  0  0  0
 21 20  1  0  0  0  0
 23 22  1  6  0  0  0
 23 26  1  0  0  0  0
 23 24  1  0  0  0  0
 24 25  1  0  0  0  0
 27 26  1  6  0  0  0
 27 30  1  0  0  0  0
 28 29  1  0  0  0  0
 28 27  1  0  0  0  0
 30 31  1  0  0  0  0
 31 32  1  0  0  0  0
 33 31  2  0  0  0  0
M  END
>  <minimizedAffinity>
-8.80928135

>  <CNNscore>
0.615852118

>  <CNNaffinity>
6.69701338

$$$$

 OpenBabel08262621053D

 33 34  0  0  1  0  0  0  0  0999 V2000
   98.1120  102.5350  103.8060 C   0  0  0  0  0  0  0  0  0  0  0  0
   98.7560  101.3320  104.5410 C   0  0  2  0  0  0  0  0  0  0  0  0
  100.7840  102.7300  105.3710 C   0  0  1  0  0  0  0  0  0  0  0  0
  102.2910  102.6830  105.6520 C   0  0  0  0  0  0  0  0  0  0  0  0
  100.3050  101.4040  104.7060 C   0  0  1  0  0  0  0  0  0  0  0  0
  102.7230  101.4990  106.5280 C   0  0  2  0  0  0  0  0  0  0  0  0
  100.8460  100.1870  105.4610 C   0  0  0  0  0  0  0  0  0  0  0  0
  101.9290  100.2510  106.2570 C   0  0  0  0  0  0  0  0  0  0  0  0
   98.2720   99.9520  103.9930 C   0  0  2  0  0  0  0  0  0  0  0  0
  100.1500   98.9270  105.3120 C   0  0  0  0  0  0  0  0  0  0  0  0
   98.9940   98.8050  104.6510 C   0  0  0  0  0  0  0  0  0  0  0  0
  102.6630  101.8320  108.0190 C   0  0  0  0  0  0  0  0  0  0  0  0
   98.3510   99.7570  102.4810 C   0  0  0  0  0  0  0  0  0  0  0  0
  100.0220  102.9700  106.5750 O   0  0  0  0  0  0  0  0  0  0  0  0
   99.6340  104.2550  106.8020 C   0  0  0  0  0  0  0  0  0  0  0  0
  100.0310  105.2190  106.1590 O   0  0  0  0  0  0  0  0  0  0  0  0
   98.6750  104.3570  107.9970 C   0  0  0  0  0  0  0  0  0  0  0  0
   97.6160  105.4530  107.7510 C   0  0  0  0  0  0  0  0  0  0  0  0
   99.4800  104.7680  109.2420 C   0  0  0  0  0  0  0  0  0  0  0  0
   97.9500  103.0090  108.2090 C   0  0  0  0  0  0  0  0  0  0  0  0
   96.4270  103.0720  108.1960 C   0  0  0  0  0  0  0  0  0  0  0  0
   97.0710  103.3640  104.5790 C   0  0  0  0  0  0  0  0  0  0  0  0
   95.6380  102.9300  104.2370 C   0  0  1  0  0  0  0  0  0  0  0  0
   94.7310  103.8390  104.8600 O   0  0  0  0  0  0  0  0  0  0  0  0
   93.8810  103.7350  104.3710 H   0  0  0  0  0  0  0  0  0  0  0  0
   95.4150  102.9060  102.7160 C   0  0  0  0  0  0  0  0  0  0  0  0
   94.0130  102.3920  102.3580 C   0  0  1  0  0  0  0  0  0  0  0  0
   93.1020  103.5020  102.4310 O   0  0  0  0  0  0  0  0  0  0  0  0
   92.2710  103.1400  102.0220 H   0  0  0  0  0  0  0  0  0  0  0  0
   93.9910  101.7920  100.9560 C   0  0  0  0  0  0  0  0  0  0  0  0
   94.1730  100.2870  101.1190 C   0  0  0  0  0  0  0  0  0  0  0  0
   95.2740   99.8430  100.6800 O   0  0  0  0  0  0  0  0  0  0  0  0
   93.2070   99.6790  101.6520 O   0  0  0  0  0  0  0  0  0  0  0  0
  1 22  1  0  0  0  0
  2  1  1  6  0  0  0
  2  5  1  0  0  0  0
  3  4  1  0  0  0  0
  3 14  1  1  0  0  0
  4  6  1  0  0  0  0
  5  3  1  0  0  0  0
  5  7  1  1  0  0  0
  6 12  1  1  0  0  0
  7  8  2  0  0  0  0
  8  6  1  0  0  0  0
  9 13  1  6  0  0  0
  9  2  1  0  0  0  0
  9 11  1  0  0  0  0
 10  7  1  0  0  0  0
 11 10  2  0  0  0  0
 14 15  1  0  0  0  0
 15 17  1  0  0  0  0
 16 15  2  0  0  0  0
 17 20  1  0  0  0  0
 17 19  1  0  0  0  0
 18 17  1  0  0  0  0
 21 20  1  0  0  0  0
 23 26  1  6  0  0  0
 23 22  1  0  0  0  0
 23 24  1  0  0  0  0
 25 24  1  0  0  0  0
 27 30  1  6  0  0  0
 27 28  1  0  0  0  0
 27 26  1  0  0  0  0
 29 28  1  0  0  0  0
 30 31  1  0  0  0  0
 31 33  1  0  0  0  0
 32 31  2  0  0  0  0
M  END
>  <minimizedAffinity>
-8.25866508

>  <CNNscore>
0.566199183

>  <CNNaffinity>
6.5304451

$$$$
