WNDFGHNETHKRJK-UHFFFAOYSA-N
     RDKit          3D

 22 24  0  0  0  0  0  0  0  0999 V2000
   10.9690  -19.2260   21.8550 C   0  0  0  0  0  0  0  0  0  0  0  0
    9.9520  -20.3280   21.9140 C   0  0  0  0  0  0  0  0  0  0  0  0
   10.0200  -21.4030   21.0200 C   0  0  0  0  0  0  0  0  0  0  0  0
    9.0930  -22.4450   21.0980 C   0  0  0  0  0  0  0  0  0  0  0  0
    8.0840  -22.4310   22.0680 C   0  0  0  0  0  0  0  0  0  0  0  0
    7.1250  -23.5340   22.1230 C   0  0  0  0  0  0  0  0  0  0  0  0
    7.4160  -24.7500   22.5480 N   0  0  0  0  0  0  0  0  0  0  0  0
    6.2750  -25.4910   22.4090 C   0  0  0  0  0  0  0  0  0  0  0  0
    6.0550  -26.8400   22.7270 C   0  0  0  0  0  0  0  0  0  0  0  0
    4.7910  -27.3920   22.4750 C   0  0  0  0  0  0  0  0  0  0  0  0
    4.4760  -28.8140   22.7830 C   0  0  0  0  0  0  0  0  0  0  0  0
    3.6230  -29.4780   21.9480 N   0  0  0  0  0  0  0  0  0  0  0  0
    4.9450  -29.3730   23.7660 O   0  0  0  0  0  0  0  0  0  0  0  0
    3.7690  -26.5980   21.9320 C   0  0  0  0  0  0  0  0  0  0  0  0
    3.9770  -25.2510   21.6120 C   0  0  0  0  0  0  0  0  0  0  0  0
    5.2490  -24.7280   21.8680 C   0  0  0  0  0  0  0  0  0  0  0  0
    5.8110  -23.4810   21.6950 N   0  0  0  0  0  0  0  0  0  0  0  0
    5.1360  -22.3470   21.0850 C   0  0  0  0  0  0  0  0  0  0  0  0
    5.3350  -22.2990   19.5680 C   0  0  0  0  0  0  0  0  0  0  0  0
    6.2890  -21.2610   19.1780 N   0  0  0  0  0  0  0  0  0  0  0  0
    8.0400  -21.3750   22.9850 C   0  0  0  0  0  0  0  0  0  0  0  0
    8.9670  -20.3310   22.9080 C   0  0  0  0  0  0  0  0  0  0  0  0
  1  2  1  0
  2  3  2  0
  3  4  1  0
  4  5  2  0
  5  6  1  0
  6  7  2  0
  7  8  1  0
  8  9  2  0
  9 10  1  0
 10 11  1  0
 11 12  1  0
 11 13  2  0
 10 14  2  0
 14 15  1  0
 15 16  2  0
 16 17  1  0
 17 18  1  0
 18 19  1  0
 19 20  1  0
  5 21  1  0
 21 22  2  0
 22  2  1  0
 17  6  1  0
 16  8  1  0
M  END
$$$$
