NURBYSCFSBBMLZ-UHFFFAOYSA-N
     RDKit          3D

 32 35  0  0  0  0  0  0  0  0999 V2000
   12.4360    2.5520   23.8600 C   0  0  0  0  0  0  0  0  0  0  0  0
   12.0640    2.7480   25.3160 C   0  0  0  0  0  0  0  0  0  0  0  0
   10.9170    3.6080   25.3710 O   0  0  0  0  0  0  0  0  0  0  0  0
   11.1310    4.7840   26.0300 C   0  0  0  0  0  0  0  0  0  0  0  0
   11.7350    4.8890   27.0900 O   0  0  0  0  0  0  0  0  0  0  0  0
   10.5390    5.8680   25.2830 C   0  0  0  0  0  0  0  0  0  0  0  0
    9.1790    5.9170   25.0000 N   0  0  0  0  0  0  0  0  0  0  0  0
    8.8440    7.0360   24.2720 C   0  0  0  0  0  0  0  0  0  0  0  0
    7.4470    7.3050   23.8450 C   0  0  0  0  0  0  0  0  0  0  0  0
   10.0160    7.7270   24.0830 C   0  0  0  0  0  0  0  0  0  0  0  0
   10.1490    8.9280   23.3940 C   0  0  0  0  0  0  0  0  0  0  0  0
   11.4310    9.3670   23.3780 N   0  0  0  0  0  0  0  0  0  0  0  0
   12.5450    8.6390   24.0220 N   0  0  0  0  0  0  0  0  0  0  0  0
   12.4460    7.4500   24.7100 C   0  0  0  0  0  0  0  0  0  0  0  0
   13.5360    6.8020   25.2980 N   0  0  0  0  0  0  0  0  0  0  0  0
   14.3610    5.7500   24.8690 C   0  0  0  0  0  0  0  0  0  0  0  0
   14.7190    5.5290   23.5370 C   0  0  0  0  0  0  0  0  0  0  0  0
   15.5410    4.4540   23.1670 C   0  0  0  0  0  0  0  0  0  0  0  0
   16.0220    3.5650   24.1280 C   0  0  0  0  0  0  0  0  0  0  0  0
   16.8340    2.4970   23.8550 O   0  0  0  0  0  0  0  0  0  0  0  0
   18.2060    2.6110   24.2310 C   0  0  0  0  0  0  0  0  0  0  0  0
   18.8800    3.6880   23.4080 C   0  0  0  0  0  0  0  0  0  0  0  0
   19.0070    3.5750   22.0130 C   0  0  0  0  0  0  0  0  0  0  0  0
   19.5960    4.5960   21.2620 C   0  0  0  0  0  0  0  0  0  0  0  0
   20.0510    5.7500   21.8940 C   0  0  0  0  0  0  0  0  0  0  0  0
   19.9140    5.8730   23.2700 C   0  0  0  0  0  0  0  0  0  0  0  0
   20.3440    6.9870   23.8790 F   0  0  0  0  0  0  0  0  0  0  0  0
   19.3320    4.8600   24.0290 C   0  0  0  0  0  0  0  0  0  0  0  0
   15.6820    3.7860   25.4670 C   0  0  0  0  0  0  0  0  0  0  0  0
   16.2450    2.7350   26.7220 Cl  0  0  0  0  0  0  0  0  0  0  0  0
   14.8610    4.8600   25.8300 C   0  0  0  0  0  0  0  0  0  0  0  0
   11.0920    7.0070   24.7150 C   0  0  0  0  0  0  0  0  0  0  0  0
  1  2  1  0
  2  3  1  0
  3  4  1  0
  4  5  2  0
  4  6  1  0
  6  7  1  0
  7  8  1  0
  8  9  1  0
  8 10  2  0
 10 11  1  0
 11 12  2  0
 12 13  1  0
 13 14  2  0
 14 15  1  0
 15 16  1  0
 16 17  2  0
 17 18  1  0
 18 19  2  0
 19 20  1  0
 20 21  1  0
 21 22  1  0
 22 23  2  0
 23 24  1  0
 24 25  2  0
 25 26  1  0
 26 27  1  0
 26 28  2  0
 19 29  1  0
 29 30  1  0
 29 31  2  0
 14 32  1  0
 32  6  2  0
 32 10  1  0
 31 16  1  0
 28 22  1  0
M  END
$$$$
