GAIKGEKRGGHCMZ-UHFFFAOYSA-N
     RDKit          3D

 31 33  0  0  0  0  0  0  0  0999 V2000
  135.6660  112.3670   42.5080 C   0  0  0  0  0  0  0  0  0  0  0  0
  134.6060  112.6650   42.9900 C   0  0  0  0  0  0  0  0  0  0  0  0
  133.3150  113.0230   43.5910 C   0  0  0  0  0  0  0  0  0  0  0  0
  132.5140  113.8170   42.6690 N   0  0  0  0  0  0  0  0  0  0  0  0
  131.9740  113.2620   41.5140 C   0  0  0  0  0  0  0  0  0  0  0  0
  131.2640  112.2620   41.5060 O   0  0  0  0  0  0  0  0  0  0  0  0
  132.3270  113.9710   40.3610 O   0  0  0  0  0  0  0  0  0  0  0  0
  133.5950  114.0310   39.6790 C   0  0  0  0  0  0  0  0  0  0  0  0
  134.0310  115.3350   39.4100 C   0  0  0  0  0  0  0  0  0  0  0  0
  135.2480  115.5600   38.7780 C   0  0  0  0  0  0  0  0  0  0  0  0
  136.0580  114.4860   38.3980 C   0  0  0  0  0  0  0  0  0  0  0  0
  135.6410  113.1600   38.6540 C   0  0  0  0  0  0  0  0  0  0  0  0
  136.2200  111.8700   38.3970 C   0  0  0  0  0  0  0  0  0  0  0  0
  137.5430  111.5920   37.7430 C   0  0  0  0  0  0  0  0  0  0  0  0
  138.5990  111.1430   38.6680 N   0  0  0  0  0  0  0  0  0  0  0  0
  139.7860  110.6560   37.9730 C   0  0  0  0  0  0  0  0  0  0  0  0
  138.9170  112.1390   39.7000 C   0  0  0  0  0  0  0  0  0  0  0  0
  139.5470  113.4310   39.1480 C   0  0  0  0  0  0  0  0  0  0  0  0
  139.8970  114.5130   40.2020 C   0  0  0  0  0  0  0  0  0  0  0  0
  138.5830  115.0310   40.8260 C   0  0  0  0  0  0  0  0  0  0  0  0
  138.7820  116.2220   41.7580 C   0  0  0  0  0  0  0  0  0  0  0  0
  140.0590  117.0180   41.5220 C   0  0  0  0  0  0  0  0  0  0  0  0
  141.3680  116.3600   41.9690 C   0  0  0  0  0  0  0  0  0  0  0  0
  141.2470  114.9010   42.3950 C   0  0  0  0  0  0  0  0  0  0  0  0
  140.8980  113.9680   41.2360 C   0  0  0  0  0  0  0  0  0  0  0  0
  135.3430  110.9390   38.9210 C   0  0  0  0  0  0  0  0  0  0  0  0
  134.2600  111.6010   39.4280 N   0  0  0  0  0  0  0  0  0  0  0  0
  134.4120  112.9600   39.2950 C   0  0  0  0  0  0  0  0  0  0  0  0
  132.3360  115.2450   42.9810 C   0  0  0  0  0  0  0  0  0  0  0  0
  133.6400  115.9010   43.4360 C   0  0  0  0  0  0  0  0  0  0  0  0
  131.2030  115.4940   43.9780 C   0  0  0  0  0  0  0  0  0  0  0  0
  1  2  3  0
  2  3  1  0
  3  4  1  0
  4  5  1  0
  5  6  2  0
  5  7  1  0
  7  8  1  0
  8  9  2  0
  9 10  1  0
 10 11  2  0
 11 12  1  0
 12 13  1  0
 13 14  1  0
 14 15  1  0
 15 16  1  0
 15 17  1  0
 17 18  1  0
 18 19  1  0
 19 20  1  0
 20 21  1  0
 21 22  1  0
 22 23  1  0
 23 24  1  0
 24 25  1  0
 13 26  2  0
 26 27  1  0
 27 28  1  0
  4 29  1  0
 29 30  1  0
 29 31  1  0
 28  8  1  0
 28 12  2  0
 25 19  1  0
M  END
$$$$
