LOCCAHWMIIHOFH-UHFFFAOYSA-N
     RDKit          3D

 34 38  0  0  0  0  0  0  0  0999 V2000
   42.1840   -4.2550  -51.6450 C   0  0  0  0  0  0  0  0  0  0  0  0
   43.9070   -4.3770  -52.0900 S   0  0  0  0  0  0  0  0  0  0  0  0
   44.2000   -3.3050  -53.0190 O   0  0  0  0  0  0  0  0  0  0  0  0
   44.1790   -5.7560  -52.4320 O   0  0  0  0  0  0  0  0  0  0  0  0
   44.7010   -4.0370  -50.6420 N   0  0  0  0  0  0  0  0  0  0  0  0
   46.1640   -4.3100  -50.5850 C   0  0  0  0  0  0  0  0  0  0  0  0
   46.6520   -4.2970  -49.1220 C   0  0  0  0  0  0  0  0  0  0  0  0
   46.3360   -3.0230  -48.4350 N   0  0  0  0  0  0  0  0  0  0  0  0
   46.7700   -3.0360  -47.0260 C   0  0  0  0  0  0  0  0  0  0  0  0
   48.0650   -2.3000  -46.8590 C   0  0  0  0  0  0  0  0  0  0  0  0
   48.7540   -2.0140  -45.6950 C   0  0  0  0  0  0  0  0  0  0  0  0
   49.8810   -1.3300  -46.0820 N   0  0  0  0  0  0  0  0  0  0  0  0
   50.9570   -0.8190  -45.3670 C   0  0  0  0  0  0  0  0  0  0  0  0
   51.0080   -1.0410  -43.6490 Cl  0  0  0  0  0  0  0  0  0  0  0  0
   51.9310   -0.1960  -46.0720 C   0  0  0  0  0  0  0  0  0  0  0  0
   53.1260    0.3730  -45.4280 C   0  0  0  0  0  0  0  0  0  0  0  0
   53.1480    0.8670  -44.1400 C   0  0  0  0  0  0  0  0  0  0  0  0
   54.2420    1.3980  -43.5500 N   0  0  0  0  0  0  0  0  0  0  0  0
   55.3540    1.4480  -44.2910 C   0  0  0  0  0  0  0  0  0  0  0  0
   56.4720    1.9750  -43.7170 N   0  0  0  0  0  0  0  0  0  0  0  0
   55.4480    1.0210  -45.5530 N   0  0  0  0  0  0  0  0  0  0  0  0
   54.3260    0.4990  -46.0970 C   0  0  0  0  0  0  0  0  0  0  0  0
   51.9030   -0.0610  -47.4550 N   0  0  0  0  0  0  0  0  0  0  0  0
   50.8920   -0.5190  -48.1680 C   0  0  0  0  0  0  0  0  0  0  0  0
   50.9360   -0.3260  -49.5500 N   0  0  0  0  0  0  0  0  0  0  0  0
   52.1620    0.0730  -50.2620 C   0  0  0  0  0  0  0  0  0  0  0  0
   52.1470   -0.4040  -51.7210 C   0  0  0  0  0  0  0  0  0  0  0  0
   50.9510   -0.0130  -52.4060 O   0  0  0  0  0  0  0  0  0  0  0  0
   49.8140   -0.5890  -51.7510 C   0  0  0  0  0  0  0  0  0  0  0  0
   49.6940   -0.0890  -50.3090 C   0  0  0  0  0  0  0  0  0  0  0  0
   49.8140   -1.2010  -47.4490 C   0  0  0  0  0  0  0  0  0  0  0  0
   48.7370   -1.7760  -47.9440 N   0  0  0  0  0  0  0  0  0  0  0  0
   44.8760   -2.7870  -48.5050 C   0  0  0  0  0  0  0  0  0  0  0  0
   44.3510   -2.7660  -49.9540 C   0  0  0  0  0  0  0  0  0  0  0  0
  1  2  1  0
  2  3  2  0
  2  4  2  0
  2  5  1  0
  5  6  1  0
  6  7  1  0
  7  8  1  0
  8  9  1  0
  9 10  1  0
 10 11  2  0
 11 12  1  0
 12 13  1  0
 13 14  1  0
 13 15  2  0
 15 16  1  0
 16 17  2  0
 17 18  1  0
 18 19  2  0
 19 20  1  0
 19 21  1  0
 21 22  2  0
 15 23  1  0
 23 24  2  0
 24 25  1  0
 25 26  1  0
 26 27  1  0
 27 28  1  0
 28 29  1  0
 29 30  1  0
 24 31  1  0
 31 32  2  0
  8 33  1  0
 33 34  1  0
 34  5  1  0
 32 10  1  0
 31 12  1  0
 22 16  1  0
 30 25  1  0
M  END
$$$$
