QQRLVNGJKMMEMW-POHAHGRESA-N
     RDKit          3D

 29 32  0  0  0  0  0  0  0  0999 V2000
   13.5540    5.5850   24.9230 C   0  0  0  0  0  0  0  0  0  0  0  0
   15.0410    5.6220   24.8720 C   0  0  0  0  0  0  0  0  0  0  0  0
   15.8200    6.6460   24.2670 C   0  0  0  0  0  0  0  0  0  0  0  0
   17.1540    6.3280   24.4210 C   0  0  0  0  0  0  0  0  0  0  0  0
   18.3070    7.0550   23.9770 C   0  0  0  0  0  0  0  0  0  0  0  0
   19.3910    6.6090   23.6340 O   0  0  0  0  0  0  0  0  0  0  0  0
   18.0720    8.3830   23.9660 O   0  0  0  0  0  0  0  0  0  0  0  0
   17.1940    5.1330   25.1030 N   0  0  0  0  0  0  0  0  0  0  0  0
   15.9290    4.6830   25.3930 C   0  0  0  0  0  0  0  0  0  0  0  0
   15.6730    3.4810   26.1110 C   0  0  0  0  0  0  0  0  0  0  0  0
   16.3710    2.3330   26.1590 C   0  0  0  0  0  0  0  0  0  0  0  0
   17.6160    1.9300   25.4080 C   0  0  0  0  0  0  0  0  0  0  0  0
   18.3240    2.6150   24.6960 O   0  0  0  0  0  0  0  0  0  0  0  0
   17.8010    0.5970   25.6970 N   0  0  0  0  0  0  0  0  0  0  0  0
   16.8450    0.1280   26.5800 C   0  0  0  0  0  0  0  0  0  0  0  0
   16.8290   -1.1270   27.0210 N   0  0  0  0  0  0  0  0  0  0  0  0
   15.8430   -1.3600   27.8920 C   0  0  0  0  0  0  0  0  0  0  0  0
   14.9490   -0.4570   28.3420 N   0  0  0  0  0  0  0  0  0  0  0  0
   15.0300    0.8120   27.8840 C   0  0  0  0  0  0  0  0  0  0  0  0
   14.1610    1.7860   28.4060 N   0  0  0  0  0  0  0  0  0  0  0  0
   13.2410    1.7110   29.4690 C   0  0  0  0  0  0  0  0  0  0  0  0
   13.7250    1.7630   30.7890 C   0  0  0  0  0  0  0  0  0  0  0  0
   12.8530    1.7210   31.8790 C   0  0  0  0  0  0  0  0  0  0  0  0
   11.4840    1.6390   31.6610 C   0  0  0  0  0  0  0  0  0  0  0  0
   10.6630    1.6010   32.7200 F   0  0  0  0  0  0  0  0  0  0  0  0
   10.9800    1.6040   30.3640 C   0  0  0  0  0  0  0  0  0  0  0  0
    9.2830    1.5200   30.0860 Cl  0  0  0  0  0  0  0  0  0  0  0  0
   11.8550    1.6470   29.2740 C   0  0  0  0  0  0  0  0  0  0  0  0
   15.9730    1.1420   26.9360 C   0  0  0  0  0  0  0  0  0  0  0  0
  1  2  1  0
  2  3  1  0
  3  4  2  0
  4  5  1  0
  5  6  2  0
  5  7  1  0
  4  8  1  0
  8  9  1  0
  9 10  1  0
 10 11  2  0
 11 12  1  0
 12 13  2  0
 12 14  1  0
 14 15  1  0
 15 16  2  0
 16 17  1  0
 17 18  2  0
 18 19  1  0
 19 20  1  0
 20 21  1  0
 21 22  2  0
 22 23  1  0
 23 24  2  0
 24 25  1  0
 24 26  1  0
 26 27  1  0
 26 28  2  0
 19 29  2  0
  9  2  2  0
 29 11  1  0
 29 15  1  0
 28 21  1  0
M  END
$$$$
