lesinurad


 24 27  0  0  0  0  0  0  0  0999 V2000
  100.2658  102.0014  106.1027 C   0  0  0  0  0  0  0  0  0  0  0  0
   99.2954  102.2195  107.0788 C   0  0  0  0  0  0  0  0  0  0  0  0
   98.8438  103.4997  107.3593 C   0  0  0  0  0  0  0  0  0  0  0  0
   99.3459  104.6039  106.6743 C   0  0  0  0  0  0  0  0  0  0  0  0
  100.3657  104.4323  105.6862 C   0  0  0  0  0  0  0  0  0  0  0  0
  100.9428  105.5289  104.9830 C   0  0  0  0  0  0  0  0  0  0  0  0
  101.9409  105.3280  104.0365 C   0  0  0  0  0  0  0  0  0  0  0  0
  102.4011  104.0490  103.7607 C   0  0  0  0  0  0  0  0  0  0  0  0
  101.8676  102.9508  104.4242 C   0  0  0  0  0  0  0  0  0  0  0  0
  100.8350  103.1079  105.3943 C   0  0  0  0  0  0  0  0  0  0  0  0
  101.7184   99.9739  106.4199 C   0  0  0  0  0  0  0  0  0  0  0  0
  101.7659   98.7501  105.9515 N   0  0  0  0  0  0  0  0  0  0  0  0
  100.7212   98.6046  105.0454 N   0  0  0  0  0  0  0  0  0  0  0  0
  100.0871   99.7477  105.0144 C   0  0  0  0  0  0  0  0  0  0  0  0
   98.5290  100.1145  103.9790 Br  0  0  0  0  0  0  0  0  0  0  0  0
  100.6668  100.6716  105.8572 N   0  0  0  0  0  0  0  0  0  0  0  0
  102.8555  100.6059  107.6070 S   0  0  0  0  0  0  0  0  0  0  0  0
  102.5328   99.3549  108.8965 C   0  0  0  0  0  0  0  0  0  0  0  0
  104.7170   98.7271  108.1550 O   0  0  0  0  0  0  0  0  0  0  0  0
  103.7471   98.4112  108.8814 C   0  0  0  0  0  0  0  0  0  0  0  0
  103.7059   97.3965  109.6155 O   0  0  0  0  0  0  0  0  0  0  0  0
   98.8220  105.9971  107.0080 C   0  0  0  0  0  0  0  0  0  0  0  0
   99.7015  107.0837  107.5901 C   0  0  0  0  0  0  0  0  0  0  0  0
   98.6201  106.4544  108.4356 C   0  0  0  0  0  0  0  0  0  0  0  0
 20 19  2  0
 21 20  1  0
 18 20  1  0
 17 18  1  0
 11 17  1  0
 12 11  2  0
 13 12  1  0
 14 13  2  0
 15 14  1  0
 16 11  1  0
 16 14  1  0
  1 16  1  0
  2  1  2  0
  3  2  1  0
  4  3  2  0
 22  4  1  0
 23 22  1  0
 24 22  1  0
 24 23  1  0
  5  4  1  0
  6  5  1  0
  7  6  2  0
  8  7  1  0
  9  8  2  0
 10  1  1  0
 10  5  2  0
 10  9  1  0
M  CHG 1  21  -1
M  END
> <i_canvas_ref\_pmid>
39245778

> <i_epik_Tot_Q>
-1

> <i_epik_Tot_abs_Q>
1

> <i_f3d_flags>
0

> <i_lp_mmshare_version>
69129

> <i_m_Source_File_Index>
1

> <i_m_source_file_index>
1

> <b_lp_Chiralities_Consistent>
1

> <b_m_subgroup_collapsed>
0

> <r_canvas_ic50\_nm>
39000

> <r_canvas_ic50\_uM>
39

> <r_canvas_pactivity>
7.4100000000000001

> <r_canvas_pdb\_resolution\_A>
2.8999999999999999

> <r_epik_Charging_Adjusted_Penalty>
5.4369832517620204e-05

> <r_epik_Ionization_Penalty>
5.4402747638992767e-05

> <r_epik_Ionization_Penalty_Charging>
5.4369832517620204e-05

> <r_epik_Ionization_Penalty_Neutral>
3.2915121372562528e-08

> <r_epik_State_Penalty>
0

> <r_lp_Energy>
38.826513999999996

> <r_lp_tautomer_probability>
1

> <s_canvas_activity\_type>
IC50

> <s_canvas_approval\_status>
FDA approved (US 2015; later withdrawn from US market)

> <s_canvas_assay\_description>
14C-urate uptake inhibition; Dai 2024 cryo-EM construct

> <s_canvas_assay\_system>
HEK293-hURAT1 (URAT1_EM construct)

> <s_canvas_benchmark\_pass\_criteria>
L2 Top-500; redock RMSD<=2.0A; pi_in>pi_out

> <s_canvas_cas\_rn>
878672-00-5

> <s_canvas_chembl\_id>
CHEMBL3301572

> <s_canvas_compound\_id>
URAT1_POS_01

> <s_canvas_data\_quality\_flag>
HIGH_ASSAY_HETEROGENEITY

> <s_canvas_in\_train\_project>
FALSE

> <s_canvas_inchi\_key>
FGQFOYHRJSUHMR-UHFFFAOYSA-N

> <s_canvas_key\_interaction\_residues>
Phe-rich cage (Phe401/402/403 region); competes with urate/pyrazinoate at Site 2; apo-like trap

> <s_canvas_mechanism\_summary>
Competitive substrate-pocket occupancy + conformational trapping in inward/apo-like state

> <s_canvas_pdb\_conformation>
inward-open

> <s_canvas_pdb\_id\_alternate>
9DKB;9JDZ

> <s_canvas_pdb\_id\_primary>
9B1H

> <s_canvas_pdb\_method>
cryo-EM

> <s_canvas_pdb\_primary\_doi>
10.2210/pdb9B1H/pdb

> <s_canvas_primary\_endpoint>
URAT1-mediated urate uptake inhibition

> <s_canvas_project\_curation\_note>
Excluded from project training CSV due to >1 log ChEMBL assay conflict; ChEMBL median pAct~5.1 vs literature ~7.0

> <s_canvas_ref\_citation>
Dai Y, Lee CH. Cell Res 2024;34:776-787

> <s_canvas_ref\_doi>
10.1038/s41422-024-01023-1

> <s_canvas_scaffold\_novel\_expected>
TRUE

> <s_canvas_synonyms>
Zurampic; RDEA594; Arhalofenate predecessor program

> <s_canvas_target\_gene>
SLC22A12

> <s_canvas_uniprot\_target>
Q96S37

> <s_canvas_validation\_role>
URAT1_positive_must_recover

> <s_canvas_validation\_tier>
Tier1a

> <s_canvas_validation\_types>
structural_redock;conformation_direction;scaffold_novel_ml

> <s_epik_cmdline>
J2VwaWtfcHl0aG9uJywgJy1waHQnLCAnMC4wJywgJy1waCcsICc3LjQnLCAnLXRuJywgJzgnLCAnLW1hJywgJzUwMCcsICctaW1hZScsICc8aW5maWxlLm1hZT4nLCAnLW9tYWUnLCAnPG91dGZpbGUubWFlPic=

> <s_epik_input>
Tz1DKFtPSF0pW0NIMl1TYzFubmMoQnIpbjEtYyhjKGMyMylbY0hdW2NIXVtjSF1bY0hdMylbY0hdW2NIXWMyW0NIXTRbQ0gyXVtDSDJdNA==

> <s_lp_Force_Field>
S-OPLS

> <s_lp_Variant>
lesinurad-1

> <s_m_Source_File>
benchmark_ligprep-out.maegz

> <s_m_Source_Path>
D:\CADD paper exercise\NLRP3_URAT1\Docking\benchmark_ligprep

> <s_m_entry_id>
26931

> <s_m_entry_name>
literature_benchmarks.1

> <s_m_job_name>
benchmark_ligprep

> <s_m_source_file>
benchmark_ligprep.maegz

> <s_m_subgroup_title>
benchmark_ligprep-out

> <s_m_subgroupid>
benchmark_ligprep-out

> <minimizedAffinity>
-8.75238

> <CNNscore>
0.9582428932

> <CNNaffinity>
7.4443697929

> <CNN_VS>
7.1335144043

> <CNNaffinity_variance>
0.2255887240

$$$$
lesinurad


 24 27  0  0  0  0  0  0  0  0999 V2000
  100.8118  102.4226  106.4034 C   0  0  0  0  0  0  0  0  0  0  0  0
  101.3903  102.3165  107.6667 C   0  0  0  0  0  0  0  0  0  0  0  0
  101.9659  101.1279  108.0880 C   0  0  0  0  0  0  0  0  0  0  0  0
  101.9832  100.0065  107.2616 C   0  0  0  0  0  0  0  0  0  0  0  0
  101.3736  100.0587  105.9687 C   0  0  0  0  0  0  0  0  0  0  0  0
  101.3276   98.9318  105.0979 C   0  0  0  0  0  0  0  0  0  0  0  0
  100.7169   99.0134  103.8518 C   0  0  0  0  0  0  0  0  0  0  0  0
  100.1321  100.1989  103.4317 C   0  0  0  0  0  0  0  0  0  0  0  0
  100.1523  101.3221  104.2497 C   0  0  0  0  0  0  0  0  0  0  0  0
  100.7768  101.2880  105.5305 C   0  0  0  0  0  0  0  0  0  0  0  0
   99.0883  104.2517  106.4753 C   0  0  0  0  0  0  0  0  0  0  0  0
   98.9152  105.4238  105.9136 N   0  0  0  0  0  0  0  0  0  0  0  0
   99.9942  105.6484  105.0656 N   0  0  0  0  0  0  0  0  0  0  0  0
  100.7726  104.6020  105.1607 C   0  0  0  0  0  0  0  0  0  0  0  0
  102.4353  104.3809  104.2548 Br  0  0  0  0  0  0  0  0  0  0  0  0
  100.2594  103.6666  106.0335 N   0  0  0  0  0  0  0  0  0  0  0  0
   97.9613  103.5525  107.6340 S   0  0  0  0  0  0  0  0  0  0  0  0
   96.6094  104.7487  107.3631 C   0  0  0  0  0  0  0  0  0  0  0  0
   95.5099  104.5705  105.2480 O   0  0  0  0  0  0  0  0  0  0  0  0
   95.6335  104.0683  106.3885 C   0  0  0  0  0  0  0  0  0  0  0  0
   95.0395  103.0379  106.7829 O   0  0  0  0  0  0  0  0  0  0  0  0
  102.6289   98.7170  107.7584 C   0  0  0  0  0  0  0  0  0  0  0  0
  102.9471   98.4715  109.2183 C   0  0  0  0  0  0  0  0  0  0  0  0
  104.0670   98.6715  108.2253 C   0  0  0  0  0  0  0  0  0  0  0  0
 20 19  2  0
 21 20  1  0
 18 20  1  0
 17 18  1  0
 11 17  1  0
 12 11  2  0
 13 12  1  0
 14 13  2  0
 15 14  1  0
 16 11  1  0
 16 14  1  0
  1 16  1  0
  2  1  2  0
  3  2  1  0
  4  3  2  0
 22  4  1  0
 23 22  1  0
 24 22  1  0
 24 23  1  0
  5  4  1  0
  6  5  1  0
  7  6  2  0
  8  7  1  0
  9  8  2  0
 10  1  1  0
 10  5  2  0
 10  9  1  0
M  CHG 1  21  -1
M  END
> <i_canvas_ref\_pmid>
39245778

> <i_epik_Tot_Q>
-1

> <i_epik_Tot_abs_Q>
1

> <i_f3d_flags>
0

> <i_lp_mmshare_version>
69129

> <i_m_Source_File_Index>
1

> <i_m_source_file_index>
1

> <b_lp_Chiralities_Consistent>
1

> <b_m_subgroup_collapsed>
0

> <r_canvas_ic50\_nm>
39000

> <r_canvas_ic50\_uM>
39

> <r_canvas_pactivity>
7.4100000000000001

> <r_canvas_pdb\_resolution\_A>
2.8999999999999999

> <r_epik_Charging_Adjusted_Penalty>
5.4369832517620204e-05

> <r_epik_Ionization_Penalty>
5.4402747638992767e-05

> <r_epik_Ionization_Penalty_Charging>
5.4369832517620204e-05

> <r_epik_Ionization_Penalty_Neutral>
3.2915121372562528e-08

> <r_epik_State_Penalty>
0

> <r_lp_Energy>
38.826513999999996

> <r_lp_tautomer_probability>
1

> <s_canvas_activity\_type>
IC50

> <s_canvas_approval\_status>
FDA approved (US 2015; later withdrawn from US market)

> <s_canvas_assay\_description>
14C-urate uptake inhibition; Dai 2024 cryo-EM construct

> <s_canvas_assay\_system>
HEK293-hURAT1 (URAT1_EM construct)

> <s_canvas_benchmark\_pass\_criteria>
L2 Top-500; redock RMSD<=2.0A; pi_in>pi_out

> <s_canvas_cas\_rn>
878672-00-5

> <s_canvas_chembl\_id>
CHEMBL3301572

> <s_canvas_compound\_id>
URAT1_POS_01

> <s_canvas_data\_quality\_flag>
HIGH_ASSAY_HETEROGENEITY

> <s_canvas_in\_train\_project>
FALSE

> <s_canvas_inchi\_key>
FGQFOYHRJSUHMR-UHFFFAOYSA-N

> <s_canvas_key\_interaction\_residues>
Phe-rich cage (Phe401/402/403 region); competes with urate/pyrazinoate at Site 2; apo-like trap

> <s_canvas_mechanism\_summary>
Competitive substrate-pocket occupancy + conformational trapping in inward/apo-like state

> <s_canvas_pdb\_conformation>
inward-open

> <s_canvas_pdb\_id\_alternate>
9DKB;9JDZ

> <s_canvas_pdb\_id\_primary>
9B1H

> <s_canvas_pdb\_method>
cryo-EM

> <s_canvas_pdb\_primary\_doi>
10.2210/pdb9B1H/pdb

> <s_canvas_primary\_endpoint>
URAT1-mediated urate uptake inhibition

> <s_canvas_project\_curation\_note>
Excluded from project training CSV due to >1 log ChEMBL assay conflict; ChEMBL median pAct~5.1 vs literature ~7.0

> <s_canvas_ref\_citation>
Dai Y, Lee CH. Cell Res 2024;34:776-787

> <s_canvas_ref\_doi>
10.1038/s41422-024-01023-1

> <s_canvas_scaffold\_novel\_expected>
TRUE

> <s_canvas_synonyms>
Zurampic; RDEA594; Arhalofenate predecessor program

> <s_canvas_target\_gene>
SLC22A12

> <s_canvas_uniprot\_target>
Q96S37

> <s_canvas_validation\_role>
URAT1_positive_must_recover

> <s_canvas_validation\_tier>
Tier1a

> <s_canvas_validation\_types>
structural_redock;conformation_direction;scaffold_novel_ml

> <s_epik_cmdline>
J2VwaWtfcHl0aG9uJywgJy1waHQnLCAnMC4wJywgJy1waCcsICc3LjQnLCAnLXRuJywgJzgnLCAnLW1hJywgJzUwMCcsICctaW1hZScsICc8aW5maWxlLm1hZT4nLCAnLW9tYWUnLCAnPG91dGZpbGUubWFlPic=

> <s_epik_input>
Tz1DKFtPSF0pW0NIMl1TYzFubmMoQnIpbjEtYyhjKGMyMylbY0hdW2NIXVtjSF1bY0hdMylbY0hdW2NIXWMyW0NIXTRbQ0gyXVtDSDJdNA==

> <s_lp_Force_Field>
S-OPLS

> <s_lp_Variant>
lesinurad-1

> <s_m_Source_File>
benchmark_ligprep-out.maegz

> <s_m_Source_Path>
D:\CADD paper exercise\NLRP3_URAT1\Docking\benchmark_ligprep

> <s_m_entry_id>
26931

> <s_m_entry_name>
literature_benchmarks.1

> <s_m_job_name>
benchmark_ligprep

> <s_m_source_file>
benchmark_ligprep.maegz

> <s_m_subgroup_title>
benchmark_ligprep-out

> <s_m_subgroupid>
benchmark_ligprep-out

> <minimizedAffinity>
-9.14795

> <CNNscore>
0.8843545318

> <CNNaffinity>
6.6736283302

> <CNN_VS>
5.9018535614

> <CNNaffinity_variance>
0.0193935875

$$$$
lesinurad


 24 27  0  0  0  0  0  0  0  0999 V2000
  100.9377  102.1675  105.4947 C   0  0  0  0  0  0  0  0  0  0  0  0
  101.6760  102.9312  104.5928 C   0  0  0  0  0  0  0  0  0  0  0  0
  101.5380  104.3098  104.5480 C   0  0  0  0  0  0  0  0  0  0  0  0
  100.6588  104.9710  105.4027 C   0  0  0  0  0  0  0  0  0  0  0  0
   99.8569  104.2261  106.3235 C   0  0  0  0  0  0  0  0  0  0  0  0
   98.9138  104.8461  107.1931 C   0  0  0  0  0  0  0  0  0  0  0  0
   98.1416  104.0911  108.0684 C   0  0  0  0  0  0  0  0  0  0  0  0
   98.2711  102.7107  108.1085 C   0  0  0  0  0  0  0  0  0  0  0  0
   99.1774  102.0644  107.2767 C   0  0  0  0  0  0  0  0  0  0  0  0
   99.9978  102.7987  106.3714 C   0  0  0  0  0  0  0  0  0  0  0  0
  101.8426  100.0075  106.4097 C   0  0  0  0  0  0  0  0  0  0  0  0
  101.7951   98.7381  106.0848 N   0  0  0  0  0  0  0  0  0  0  0  0
  101.0417   98.6285  104.9212 N   0  0  0  0  0  0  0  0  0  0  0  0
  100.6636   99.8388  104.6016 C   0  0  0  0  0  0  0  0  0  0  0  0
   99.5575  100.2902  103.1160 Br  0  0  0  0  0  0  0  0  0  0  0  0
  101.1403  100.7716  105.4975 N   0  0  0  0  0  0  0  0  0  0  0  0
  102.6929  100.6180  107.8260 S   0  0  0  0  0  0  0  0  0  0  0  0
  103.7543   99.1553  108.0828 C   0  0  0  0  0  0  0  0  0  0  0  0
  103.4224   98.9048  110.4369 O   0  0  0  0  0  0  0  0  0  0  0  0
  103.1764   98.4248  109.3066 C   0  0  0  0  0  0  0  0  0  0  0  0
  102.4727   97.4088  109.1004 O   0  0  0  0  0  0  0  0  0  0  0  0
  100.5366  106.4896  105.3268 C   0  0  0  0  0  0  0  0  0  0  0  0
  101.2344  107.4157  106.3008 C   0  0  0  0  0  0  0  0  0  0  0  0
   99.7311  107.2780  106.3356 C   0  0  0  0  0  0  0  0  0  0  0  0
 20 19  2  0
 21 20  1  0
 18 20  1  0
 17 18  1  0
 11 17  1  0
 12 11  2  0
 13 12  1  0
 14 13  2  0
 15 14  1  0
 16 11  1  0
 16 14  1  0
  1 16  1  0
  2  1  2  0
  3  2  1  0
  4  3  2  0
 22  4  1  0
 23 22  1  0
 24 22  1  0
 24 23  1  0
  5  4  1  0
  6  5  1  0
  7  6  2  0
  8  7  1  0
  9  8  2  0
 10  1  1  0
 10  5  2  0
 10  9  1  0
M  CHG 1  21  -1
M  END
> <i_canvas_ref\_pmid>
39245778

> <i_epik_Tot_Q>
-1

> <i_epik_Tot_abs_Q>
1

> <i_f3d_flags>
0

> <i_lp_mmshare_version>
69129

> <i_m_Source_File_Index>
1

> <i_m_source_file_index>
1

> <b_lp_Chiralities_Consistent>
1

> <b_m_subgroup_collapsed>
0

> <r_canvas_ic50\_nm>
39000

> <r_canvas_ic50\_uM>
39

> <r_canvas_pactivity>
7.4100000000000001

> <r_canvas_pdb\_resolution\_A>
2.8999999999999999

> <r_epik_Charging_Adjusted_Penalty>
5.4369832517620204e-05

> <r_epik_Ionization_Penalty>
5.4402747638992767e-05

> <r_epik_Ionization_Penalty_Charging>
5.4369832517620204e-05

> <r_epik_Ionization_Penalty_Neutral>
3.2915121372562528e-08

> <r_epik_State_Penalty>
0

> <r_lp_Energy>
38.826513999999996

> <r_lp_tautomer_probability>
1

> <s_canvas_activity\_type>
IC50

> <s_canvas_approval\_status>
FDA approved (US 2015; later withdrawn from US market)

> <s_canvas_assay\_description>
14C-urate uptake inhibition; Dai 2024 cryo-EM construct

> <s_canvas_assay\_system>
HEK293-hURAT1 (URAT1_EM construct)

> <s_canvas_benchmark\_pass\_criteria>
L2 Top-500; redock RMSD<=2.0A; pi_in>pi_out

> <s_canvas_cas\_rn>
878672-00-5

> <s_canvas_chembl\_id>
CHEMBL3301572

> <s_canvas_compound\_id>
URAT1_POS_01

> <s_canvas_data\_quality\_flag>
HIGH_ASSAY_HETEROGENEITY

> <s_canvas_in\_train\_project>
FALSE

> <s_canvas_inchi\_key>
FGQFOYHRJSUHMR-UHFFFAOYSA-N

> <s_canvas_key\_interaction\_residues>
Phe-rich cage (Phe401/402/403 region); competes with urate/pyrazinoate at Site 2; apo-like trap

> <s_canvas_mechanism\_summary>
Competitive substrate-pocket occupancy + conformational trapping in inward/apo-like state

> <s_canvas_pdb\_conformation>
inward-open

> <s_canvas_pdb\_id\_alternate>
9DKB;9JDZ

> <s_canvas_pdb\_id\_primary>
9B1H

> <s_canvas_pdb\_method>
cryo-EM

> <s_canvas_pdb\_primary\_doi>
10.2210/pdb9B1H/pdb

> <s_canvas_primary\_endpoint>
URAT1-mediated urate uptake inhibition

> <s_canvas_project\_curation\_note>
Excluded from project training CSV due to >1 log ChEMBL assay conflict; ChEMBL median pAct~5.1 vs literature ~7.0

> <s_canvas_ref\_citation>
Dai Y, Lee CH. Cell Res 2024;34:776-787

> <s_canvas_ref\_doi>
10.1038/s41422-024-01023-1

> <s_canvas_scaffold\_novel\_expected>
TRUE

> <s_canvas_synonyms>
Zurampic; RDEA594; Arhalofenate predecessor program

> <s_canvas_target\_gene>
SLC22A12

> <s_canvas_uniprot\_target>
Q96S37

> <s_canvas_validation\_role>
URAT1_positive_must_recover

> <s_canvas_validation\_tier>
Tier1a

> <s_canvas_validation\_types>
structural_redock;conformation_direction;scaffold_novel_ml

> <s_epik_cmdline>
J2VwaWtfcHl0aG9uJywgJy1waHQnLCAnMC4wJywgJy1waCcsICc3LjQnLCAnLXRuJywgJzgnLCAnLW1hJywgJzUwMCcsICctaW1hZScsICc8aW5maWxlLm1hZT4nLCAnLW9tYWUnLCAnPG91dGZpbGUubWFlPic=

> <s_epik_input>
Tz1DKFtPSF0pW0NIMl1TYzFubmMoQnIpbjEtYyhjKGMyMylbY0hdW2NIXVtjSF1bY0hdMylbY0hdW2NIXWMyW0NIXTRbQ0gyXVtDSDJdNA==

> <s_lp_Force_Field>
S-OPLS

> <s_lp_Variant>
lesinurad-1

> <s_m_Source_File>
benchmark_ligprep-out.maegz

> <s_m_Source_Path>
D:\CADD paper exercise\NLRP3_URAT1\Docking\benchmark_ligprep

> <s_m_entry_id>
26931

> <s_m_entry_name>
literature_benchmarks.1

> <s_m_job_name>
benchmark_ligprep

> <s_m_source_file>
benchmark_ligprep.maegz

> <s_m_subgroup_title>
benchmark_ligprep-out

> <s_m_subgroupid>
benchmark_ligprep-out

> <minimizedAffinity>
-8.87785

> <CNNscore>
0.8510310650

> <CNNaffinity>
6.9776034355

> <CNN_VS>
5.9381570816

> <CNNaffinity_variance>
0.0844143406

$$$$
lesinurad


 24 27  0  0  0  0  0  0  0  0999 V2000
  100.3198  101.8492  106.1561 C   0  0  0  0  0  0  0  0  0  0  0  0
   99.2575  102.0057  107.0443 C   0  0  0  0  0  0  0  0  0  0  0  0
   98.7001  103.2540  107.2738 C   0  0  0  0  0  0  0  0  0  0  0  0
   99.1847  104.3867  106.6237 C   0  0  0  0  0  0  0  0  0  0  0  0
  100.2942  104.2798  105.7272 C   0  0  0  0  0  0  0  0  0  0  0  0
  100.8554  105.4099  105.0654 C   0  0  0  0  0  0  0  0  0  0  0  0
  101.9416  105.2726  104.2088 C   0  0  0  0  0  0  0  0  0  0  0  0
  102.5070  104.0260  103.9847 C   0  0  0  0  0  0  0  0  0  0  0  0
  101.9926  102.8970  104.6108 C   0  0  0  0  0  0  0  0  0  0  0  0
  100.8730  102.9885  105.4883 C   0  0  0  0  0  0  0  0  0  0  0  0
  100.4326   99.6048  105.0285 C   0  0  0  0  0  0  0  0  0  0  0  0
  101.1521   98.5144  105.1407 N   0  0  0  0  0  0  0  0  0  0  0  0
  102.0629   98.7146  106.1722 N   0  0  0  0  0  0  0  0  0  0  0  0
  101.8541   99.9214  106.6306 C   0  0  0  0  0  0  0  0  0  0  0  0
  102.8514  100.7577  108.0234 Br  0  0  0  0  0  0  0  0  0  0  0  0
  100.8272  100.5481  105.9577 N   0  0  0  0  0  0  0  0  0  0  0  0
   99.1483   99.8047  103.8400 S   0  0  0  0  0  0  0  0  0  0  0  0
  100.0482  100.9570  102.7472 C   0  0  0  0  0  0  0  0  0  0  0  0
  100.7954   98.8348  101.9394 O   0  0  0  0  0  0  0  0  0  0  0  0
  100.8860  100.0766  101.8048 C   0  0  0  0  0  0  0  0  0  0  0  0
  101.5893  100.6515  100.9417 O   0  0  0  0  0  0  0  0  0  0  0  0
   98.5435  105.7431  106.8988 C   0  0  0  0  0  0  0  0  0  0  0  0
   98.9986  106.6496  108.0232 C   0  0  0  0  0  0  0  0  0  0  0  0
   97.6490  105.9762  108.0962 C   0  0  0  0  0  0  0  0  0  0  0  0
 20 19  2  0
 21 20  1  0
 18 20  1  0
 17 18  1  0
 11 17  1  0
 12 11  2  0
 13 12  1  0
 14 13  2  0
 15 14  1  0
 16 11  1  0
 16 14  1  0
  1 16  1  0
  2  1  2  0
  3  2  1  0
  4  3  2  0
 22  4  1  0
 23 22  1  0
 24 22  1  0
 24 23  1  0
  5  4  1  0
  6  5  1  0
  7  6  2  0
  8  7  1  0
  9  8  2  0
 10  1  1  0
 10  5  2  0
 10  9  1  0
M  CHG 1  21  -1
M  END
> <i_canvas_ref\_pmid>
39245778

> <i_epik_Tot_Q>
-1

> <i_epik_Tot_abs_Q>
1

> <i_f3d_flags>
0

> <i_lp_mmshare_version>
69129

> <i_m_Source_File_Index>
1

> <i_m_source_file_index>
1

> <b_lp_Chiralities_Consistent>
1

> <b_m_subgroup_collapsed>
0

> <r_canvas_ic50\_nm>
39000

> <r_canvas_ic50\_uM>
39

> <r_canvas_pactivity>
7.4100000000000001

> <r_canvas_pdb\_resolution\_A>
2.8999999999999999

> <r_epik_Charging_Adjusted_Penalty>
5.4369832517620204e-05

> <r_epik_Ionization_Penalty>
5.4402747638992767e-05

> <r_epik_Ionization_Penalty_Charging>
5.4369832517620204e-05

> <r_epik_Ionization_Penalty_Neutral>
3.2915121372562528e-08

> <r_epik_State_Penalty>
0

> <r_lp_Energy>
38.826513999999996

> <r_lp_tautomer_probability>
1

> <s_canvas_activity\_type>
IC50

> <s_canvas_approval\_status>
FDA approved (US 2015; later withdrawn from US market)

> <s_canvas_assay\_description>
14C-urate uptake inhibition; Dai 2024 cryo-EM construct

> <s_canvas_assay\_system>
HEK293-hURAT1 (URAT1_EM construct)

> <s_canvas_benchmark\_pass\_criteria>
L2 Top-500; redock RMSD<=2.0A; pi_in>pi_out

> <s_canvas_cas\_rn>
878672-00-5

> <s_canvas_chembl\_id>
CHEMBL3301572

> <s_canvas_compound\_id>
URAT1_POS_01

> <s_canvas_data\_quality\_flag>
HIGH_ASSAY_HETEROGENEITY

> <s_canvas_in\_train\_project>
FALSE

> <s_canvas_inchi\_key>
FGQFOYHRJSUHMR-UHFFFAOYSA-N

> <s_canvas_key\_interaction\_residues>
Phe-rich cage (Phe401/402/403 region); competes with urate/pyrazinoate at Site 2; apo-like trap

> <s_canvas_mechanism\_summary>
Competitive substrate-pocket occupancy + conformational trapping in inward/apo-like state

> <s_canvas_pdb\_conformation>
inward-open

> <s_canvas_pdb\_id\_alternate>
9DKB;9JDZ

> <s_canvas_pdb\_id\_primary>
9B1H

> <s_canvas_pdb\_method>
cryo-EM

> <s_canvas_pdb\_primary\_doi>
10.2210/pdb9B1H/pdb

> <s_canvas_primary\_endpoint>
URAT1-mediated urate uptake inhibition

> <s_canvas_project\_curation\_note>
Excluded from project training CSV due to >1 log ChEMBL assay conflict; ChEMBL median pAct~5.1 vs literature ~7.0

> <s_canvas_ref\_citation>
Dai Y, Lee CH. Cell Res 2024;34:776-787

> <s_canvas_ref\_doi>
10.1038/s41422-024-01023-1

> <s_canvas_scaffold\_novel\_expected>
TRUE

> <s_canvas_synonyms>
Zurampic; RDEA594; Arhalofenate predecessor program

> <s_canvas_target\_gene>
SLC22A12

> <s_canvas_uniprot\_target>
Q96S37

> <s_canvas_validation\_role>
URAT1_positive_must_recover

> <s_canvas_validation\_tier>
Tier1a

> <s_canvas_validation\_types>
structural_redock;conformation_direction;scaffold_novel_ml

> <s_epik_cmdline>
J2VwaWtfcHl0aG9uJywgJy1waHQnLCAnMC4wJywgJy1waCcsICc3LjQnLCAnLXRuJywgJzgnLCAnLW1hJywgJzUwMCcsICctaW1hZScsICc8aW5maWxlLm1hZT4nLCAnLW9tYWUnLCAnPG91dGZpbGUubWFlPic=

> <s_epik_input>
Tz1DKFtPSF0pW0NIMl1TYzFubmMoQnIpbjEtYyhjKGMyMylbY0hdW2NIXVtjSF1bY0hdMylbY0hdW2NIXWMyW0NIXTRbQ0gyXVtDSDJdNA==

> <s_lp_Force_Field>
S-OPLS

> <s_lp_Variant>
lesinurad-1

> <s_m_Source_File>
benchmark_ligprep-out.maegz

> <s_m_Source_Path>
D:\CADD paper exercise\NLRP3_URAT1\Docking\benchmark_ligprep

> <s_m_entry_id>
26931

> <s_m_entry_name>
literature_benchmarks.1

> <s_m_job_name>
benchmark_ligprep

> <s_m_source_file>
benchmark_ligprep.maegz

> <s_m_subgroup_title>
benchmark_ligprep-out

> <s_m_subgroupid>
benchmark_ligprep-out

> <minimizedAffinity>
-8.74876

> <CNNscore>
0.7804058790

> <CNNaffinity>
7.0152683258

> <CNN_VS>
5.4747567177

> <CNNaffinity_variance>
0.1710468531

$$$$
lesinurad


 24 27  0  0  0  0  0  0  0  0999 V2000
   99.5730  103.1740  105.8124 C   0  0  0  0  0  0  0  0  0  0  0  0
  100.2539  104.0691  104.9896 C   0  0  0  0  0  0  0  0  0  0  0  0
  100.4812  105.3754  105.3941 C   0  0  0  0  0  0  0  0  0  0  0  0
  100.0366  105.8305  106.6335 C   0  0  0  0  0  0  0  0  0  0  0  0
   99.3058  104.9567  107.4985 C   0  0  0  0  0  0  0  0  0  0  0  0
   98.7940  105.3796  108.7592 C   0  0  0  0  0  0  0  0  0  0  0  0
   98.0775  104.5077  109.5709 C   0  0  0  0  0  0  0  0  0  0  0  0
   97.8407  103.2029  109.1643 C   0  0  0  0  0  0  0  0  0  0  0  0
   98.3200  102.7488  107.9416 C   0  0  0  0  0  0  0  0  0  0  0  0
   99.0690  103.6041  107.0817 C   0  0  0  0  0  0  0  0  0  0  0  0
  100.2926  100.8081  105.3580 C   0  0  0  0  0  0  0  0  0  0  0  0
   99.7536   99.7269  104.8485 N   0  0  0  0  0  0  0  0  0  0  0  0
   98.4508  100.0402  104.4767 N   0  0  0  0  0  0  0  0  0  0  0  0
   98.2623  101.2966  104.7860 C   0  0  0  0  0  0  0  0  0  0  0  0
   96.6324  102.2563  104.5482 Br  0  0  0  0  0  0  0  0  0  0  0  0
   99.3917  101.8556  105.3448 N   0  0  0  0  0  0  0  0  0  0  0  0
  101.9428  100.8770  105.9694 S   0  0  0  0  0  0  0  0  0  0  0  0
  101.6306   99.9729  107.5241 C   0  0  0  0  0  0  0  0  0  0  0  0
  102.3167   98.0648  106.2581 O   0  0  0  0  0  0  0  0  0  0  0  0
  102.3524   98.6226  107.3787 C   0  0  0  0  0  0  0  0  0  0  0  0
  102.9548   98.1728  108.3811 O   0  0  0  0  0  0  0  0  0  0  0  0
  100.3086  107.2736  107.0457 C   0  0  0  0  0  0  0  0  0  0  0  0
   99.4224  108.4260  106.6218 C   0  0  0  0  0  0  0  0  0  0  0  0
  100.8195  108.3031  106.0623 C   0  0  0  0  0  0  0  0  0  0  0  0
 20 19  2  0
 21 20  1  0
 18 20  1  0
 17 18  1  0
 11 17  1  0
 12 11  2  0
 13 12  1  0
 14 13  2  0
 15 14  1  0
 16 11  1  0
 16 14  1  0
  1 16  1  0
  2  1  2  0
  3  2  1  0
  4  3  2  0
 22  4  1  0
 23 22  1  0
 24 22  1  0
 24 23  1  0
  5  4  1  0
  6  5  1  0
  7  6  2  0
  8  7  1  0
  9  8  2  0
 10  1  1  0
 10  5  2  0
 10  9  1  0
M  CHG 1  21  -1
M  END
> <i_canvas_ref\_pmid>
39245778

> <i_epik_Tot_Q>
-1

> <i_epik_Tot_abs_Q>
1

> <i_f3d_flags>
0

> <i_lp_mmshare_version>
69129

> <i_m_Source_File_Index>
1

> <i_m_source_file_index>
1

> <b_lp_Chiralities_Consistent>
1

> <b_m_subgroup_collapsed>
0

> <r_canvas_ic50\_nm>
39000

> <r_canvas_ic50\_uM>
39

> <r_canvas_pactivity>
7.4100000000000001

> <r_canvas_pdb\_resolution\_A>
2.8999999999999999

> <r_epik_Charging_Adjusted_Penalty>
5.4369832517620204e-05

> <r_epik_Ionization_Penalty>
5.4402747638992767e-05

> <r_epik_Ionization_Penalty_Charging>
5.4369832517620204e-05

> <r_epik_Ionization_Penalty_Neutral>
3.2915121372562528e-08

> <r_epik_State_Penalty>
0

> <r_lp_Energy>
38.826513999999996

> <r_lp_tautomer_probability>
1

> <s_canvas_activity\_type>
IC50

> <s_canvas_approval\_status>
FDA approved (US 2015; later withdrawn from US market)

> <s_canvas_assay\_description>
14C-urate uptake inhibition; Dai 2024 cryo-EM construct

> <s_canvas_assay\_system>
HEK293-hURAT1 (URAT1_EM construct)

> <s_canvas_benchmark\_pass\_criteria>
L2 Top-500; redock RMSD<=2.0A; pi_in>pi_out

> <s_canvas_cas\_rn>
878672-00-5

> <s_canvas_chembl\_id>
CHEMBL3301572

> <s_canvas_compound\_id>
URAT1_POS_01

> <s_canvas_data\_quality\_flag>
HIGH_ASSAY_HETEROGENEITY

> <s_canvas_in\_train\_project>
FALSE

> <s_canvas_inchi\_key>
FGQFOYHRJSUHMR-UHFFFAOYSA-N

> <s_canvas_key\_interaction\_residues>
Phe-rich cage (Phe401/402/403 region); competes with urate/pyrazinoate at Site 2; apo-like trap

> <s_canvas_mechanism\_summary>
Competitive substrate-pocket occupancy + conformational trapping in inward/apo-like state

> <s_canvas_pdb\_conformation>
inward-open

> <s_canvas_pdb\_id\_alternate>
9DKB;9JDZ

> <s_canvas_pdb\_id\_primary>
9B1H

> <s_canvas_pdb\_method>
cryo-EM

> <s_canvas_pdb\_primary\_doi>
10.2210/pdb9B1H/pdb

> <s_canvas_primary\_endpoint>
URAT1-mediated urate uptake inhibition

> <s_canvas_project\_curation\_note>
Excluded from project training CSV due to >1 log ChEMBL assay conflict; ChEMBL median pAct~5.1 vs literature ~7.0

> <s_canvas_ref\_citation>
Dai Y, Lee CH. Cell Res 2024;34:776-787

> <s_canvas_ref\_doi>
10.1038/s41422-024-01023-1

> <s_canvas_scaffold\_novel\_expected>
TRUE

> <s_canvas_synonyms>
Zurampic; RDEA594; Arhalofenate predecessor program

> <s_canvas_target\_gene>
SLC22A12

> <s_canvas_uniprot\_target>
Q96S37

> <s_canvas_validation\_role>
URAT1_positive_must_recover

> <s_canvas_validation\_tier>
Tier1a

> <s_canvas_validation\_types>
structural_redock;conformation_direction;scaffold_novel_ml

> <s_epik_cmdline>
J2VwaWtfcHl0aG9uJywgJy1waHQnLCAnMC4wJywgJy1waCcsICc3LjQnLCAnLXRuJywgJzgnLCAnLW1hJywgJzUwMCcsICctaW1hZScsICc8aW5maWxlLm1hZT4nLCAnLW9tYWUnLCAnPG91dGZpbGUubWFlPic=

> <s_epik_input>
Tz1DKFtPSF0pW0NIMl1TYzFubmMoQnIpbjEtYyhjKGMyMylbY0hdW2NIXVtjSF1bY0hdMylbY0hdW2NIXWMyW0NIXTRbQ0gyXVtDSDJdNA==

> <s_lp_Force_Field>
S-OPLS

> <s_lp_Variant>
lesinurad-1

> <s_m_Source_File>
benchmark_ligprep-out.maegz

> <s_m_Source_Path>
D:\CADD paper exercise\NLRP3_URAT1\Docking\benchmark_ligprep

> <s_m_entry_id>
26931

> <s_m_entry_name>
literature_benchmarks.1

> <s_m_job_name>
benchmark_ligprep

> <s_m_source_file>
benchmark_ligprep.maegz

> <s_m_subgroup_title>
benchmark_ligprep-out

> <s_m_subgroupid>
benchmark_ligprep-out

> <minimizedAffinity>
-7.93608

> <CNNscore>
0.6804093122

> <CNNaffinity>
6.7343463898

> <CNN_VS>
4.5821118355

> <CNNaffinity_variance>
0.1680635214

$$$$
lesinurad


 24 27  0  0  0  0  0  0  0  0999 V2000
  100.3373  101.8460  106.0857 C   0  0  0  0  0  0  0  0  0  0  0  0
   99.3479  102.0111  107.0531 C   0  0  0  0  0  0  0  0  0  0  0  0
   98.8499  103.2693  107.3538 C   0  0  0  0  0  0  0  0  0  0  0  0
   99.3229  104.4038  106.6982 C   0  0  0  0  0  0  0  0  0  0  0  0
  100.3602  104.2870  105.7203 C   0  0  0  0  0  0  0  0  0  0  0  0
  100.9087  105.4169  105.0474 C   0  0  0  0  0  0  0  0  0  0  0  0
  101.9247  105.2694  104.1102 C   0  0  0  0  0  0  0  0  0  0  0  0
  102.4312  104.0125  103.8144 C   0  0  0  0  0  0  0  0  0  0  0  0
  101.9269  102.8834  104.4482 C   0  0  0  0  0  0  0  0  0  0  0  0
  100.8776  102.9855  105.4076 C   0  0  0  0  0  0  0  0  0  0  0  0
  100.3944   99.6843  104.8031 C   0  0  0  0  0  0  0  0  0  0  0  0
  101.0486   98.5500  104.8715 N   0  0  0  0  0  0  0  0  0  0  0  0
  101.9103   98.6252  105.9604 N   0  0  0  0  0  0  0  0  0  0  0  0
  101.7400   99.8063  106.4950 C   0  0  0  0  0  0  0  0  0  0  0  0
  102.7013  100.4846  107.9949 Br  0  0  0  0  0  0  0  0  0  0  0  0
  100.7860  100.5358  105.8184 N   0  0  0  0  0  0  0  0  0  0  0  0
   99.1899  100.0396  103.5684 S   0  0  0  0  0  0  0  0  0  0  0  0
   97.7254   99.6199  104.5739 C   0  0  0  0  0  0  0  0  0  0  0  0
   97.3046  101.9101  104.0332 O   0  0  0  0  0  0  0  0  0  0  0  0
   96.8602  100.8909  104.6093 C   0  0  0  0  0  0  0  0  0  0  0  0
   95.7514  100.8252  105.1892 O   0  0  0  0  0  0  0  0  0  0  0  0
   98.7481  105.7713  107.0533 C   0  0  0  0  0  0  0  0  0  0  0  0
   99.3813  106.6817  108.0845 C   0  0  0  0  0  0  0  0  0  0  0  0
   98.0508  106.0277  108.3710 C   0  0  0  0  0  0  0  0  0  0  0  0
 20 19  2  0
 21 20  1  0
 18 20  1  0
 17 18  1  0
 11 17  1  0
 12 11  2  0
 13 12  1  0
 14 13  2  0
 15 14  1  0
 16 11  1  0
 16 14  1  0
  1 16  1  0
  2  1  2  0
  3  2  1  0
  4  3  2  0
 22  4  1  0
 23 22  1  0
 24 22  1  0
 24 23  1  0
  5  4  1  0
  6  5  1  0
  7  6  2  0
  8  7  1  0
  9  8  2  0
 10  1  1  0
 10  5  2  0
 10  9  1  0
M  CHG 1  21  -1
M  END
> <i_canvas_ref\_pmid>
39245778

> <i_epik_Tot_Q>
-1

> <i_epik_Tot_abs_Q>
1

> <i_f3d_flags>
0

> <i_lp_mmshare_version>
69129

> <i_m_Source_File_Index>
1

> <i_m_source_file_index>
1

> <b_lp_Chiralities_Consistent>
1

> <b_m_subgroup_collapsed>
0

> <r_canvas_ic50\_nm>
39000

> <r_canvas_ic50\_uM>
39

> <r_canvas_pactivity>
7.4100000000000001

> <r_canvas_pdb\_resolution\_A>
2.8999999999999999

> <r_epik_Charging_Adjusted_Penalty>
5.4369832517620204e-05

> <r_epik_Ionization_Penalty>
5.4402747638992767e-05

> <r_epik_Ionization_Penalty_Charging>
5.4369832517620204e-05

> <r_epik_Ionization_Penalty_Neutral>
3.2915121372562528e-08

> <r_epik_State_Penalty>
0

> <r_lp_Energy>
38.826513999999996

> <r_lp_tautomer_probability>
1

> <s_canvas_activity\_type>
IC50

> <s_canvas_approval\_status>
FDA approved (US 2015; later withdrawn from US market)

> <s_canvas_assay\_description>
14C-urate uptake inhibition; Dai 2024 cryo-EM construct

> <s_canvas_assay\_system>
HEK293-hURAT1 (URAT1_EM construct)

> <s_canvas_benchmark\_pass\_criteria>
L2 Top-500; redock RMSD<=2.0A; pi_in>pi_out

> <s_canvas_cas\_rn>
878672-00-5

> <s_canvas_chembl\_id>
CHEMBL3301572

> <s_canvas_compound\_id>
URAT1_POS_01

> <s_canvas_data\_quality\_flag>
HIGH_ASSAY_HETEROGENEITY

> <s_canvas_in\_train\_project>
FALSE

> <s_canvas_inchi\_key>
FGQFOYHRJSUHMR-UHFFFAOYSA-N

> <s_canvas_key\_interaction\_residues>
Phe-rich cage (Phe401/402/403 region); competes with urate/pyrazinoate at Site 2; apo-like trap

> <s_canvas_mechanism\_summary>
Competitive substrate-pocket occupancy + conformational trapping in inward/apo-like state

> <s_canvas_pdb\_conformation>
inward-open

> <s_canvas_pdb\_id\_alternate>
9DKB;9JDZ

> <s_canvas_pdb\_id\_primary>
9B1H

> <s_canvas_pdb\_method>
cryo-EM

> <s_canvas_pdb\_primary\_doi>
10.2210/pdb9B1H/pdb

> <s_canvas_primary\_endpoint>
URAT1-mediated urate uptake inhibition

> <s_canvas_project\_curation\_note>
Excluded from project training CSV due to >1 log ChEMBL assay conflict; ChEMBL median pAct~5.1 vs literature ~7.0

> <s_canvas_ref\_citation>
Dai Y, Lee CH. Cell Res 2024;34:776-787

> <s_canvas_ref\_doi>
10.1038/s41422-024-01023-1

> <s_canvas_scaffold\_novel\_expected>
TRUE

> <s_canvas_synonyms>
Zurampic; RDEA594; Arhalofenate predecessor program

> <s_canvas_target\_gene>
SLC22A12

> <s_canvas_uniprot\_target>
Q96S37

> <s_canvas_validation\_role>
URAT1_positive_must_recover

> <s_canvas_validation\_tier>
Tier1a

> <s_canvas_validation\_types>
structural_redock;conformation_direction;scaffold_novel_ml

> <s_epik_cmdline>
J2VwaWtfcHl0aG9uJywgJy1waHQnLCAnMC4wJywgJy1waCcsICc3LjQnLCAnLXRuJywgJzgnLCAnLW1hJywgJzUwMCcsICctaW1hZScsICc8aW5maWxlLm1hZT4nLCAnLW9tYWUnLCAnPG91dGZpbGUubWFlPic=

> <s_epik_input>
Tz1DKFtPSF0pW0NIMl1TYzFubmMoQnIpbjEtYyhjKGMyMylbY0hdW2NIXVtjSF1bY0hdMylbY0hdW2NIXWMyW0NIXTRbQ0gyXVtDSDJdNA==

> <s_lp_Force_Field>
S-OPLS

> <s_lp_Variant>
lesinurad-1

> <s_m_Source_File>
benchmark_ligprep-out.maegz

> <s_m_Source_Path>
D:\CADD paper exercise\NLRP3_URAT1\Docking\benchmark_ligprep

> <s_m_entry_id>
26931

> <s_m_entry_name>
literature_benchmarks.1

> <s_m_job_name>
benchmark_ligprep

> <s_m_source_file>
benchmark_ligprep.maegz

> <s_m_subgroup_title>
benchmark_ligprep-out

> <s_m_subgroupid>
benchmark_ligprep-out

> <minimizedAffinity>
-8.59999

> <CNNscore>
0.6728304625

> <CNNaffinity>
6.7817072868

> <CNN_VS>
4.5629391670

> <CNNaffinity_variance>
0.0101228999

$$$$
lesinurad


 24 27  0  0  0  0  0  0  0  0999 V2000
  100.9140  102.1503  106.7741 C   0  0  0  0  0  0  0  0  0  0  0  0
  101.5928  102.0872  107.9895 C   0  0  0  0  0  0  0  0  0  0  0  0
  102.2420  100.9271  108.3823 C   0  0  0  0  0  0  0  0  0  0  0  0
  102.2350   99.7922  107.5744 C   0  0  0  0  0  0  0  0  0  0  0  0
  101.5249   99.7998  106.3328 C   0  0  0  0  0  0  0  0  0  0  0  0
  101.4516   98.6565  105.4857 C   0  0  0  0  0  0  0  0  0  0  0  0
  100.7430   98.6943  104.2904 C   0  0  0  0  0  0  0  0  0  0  0  0
  100.0848   99.8509  103.8996 C   0  0  0  0  0  0  0  0  0  0  0  0
  100.1284  100.9888  104.6961 C   0  0  0  0  0  0  0  0  0  0  0  0
  100.8519  100.9996  105.9242 C   0  0  0  0  0  0  0  0  0  0  0  0
  100.6217  104.2461  105.4163 C   0  0  0  0  0  0  0  0  0  0  0  0
   99.7969  105.2652  105.3981 N   0  0  0  0  0  0  0  0  0  0  0  0
   98.8765  105.0812  106.4241 N   0  0  0  0  0  0  0  0  0  0  0  0
   99.1859  103.9540  107.0104 C   0  0  0  0  0  0  0  0  0  0  0  0
   98.2292  103.1684  108.4600 Br  0  0  0  0  0  0  0  0  0  0  0  0
  100.2900  103.3675  106.4298 N   0  0  0  0  0  0  0  0  0  0  0  0
  101.9574  104.0554  104.2844 S   0  0  0  0  0  0  0  0  0  0  0  0
  102.2587  105.8347  104.0103 C   0  0  0  0  0  0  0  0  0  0  0  0
  103.8135  107.0216  102.6362 O   0  0  0  0  0  0  0  0  0  0  0  0
  103.2593  105.9183  102.8454 C   0  0  0  0  0  0  0  0  0  0  0  0
  103.4807  104.8728  102.1911 O   0  0  0  0  0  0  0  0  0  0  0  0
  102.9636   98.5350  108.0385 C   0  0  0  0  0  0  0  0  0  0  0  0
  103.4828   98.3652  109.4508 C   0  0  0  0  0  0  0  0  0  0  0  0
  104.4526   98.5264  108.3047 C   0  0  0  0  0  0  0  0  0  0  0  0
 20 19  2  0
 21 20  1  0
 18 20  1  0
 17 18  1  0
 11 17  1  0
 12 11  2  0
 13 12  1  0
 14 13  2  0
 15 14  1  0
 16 11  1  0
 16 14  1  0
  1 16  1  0
  2  1  2  0
  3  2  1  0
  4  3  2  0
 22  4  1  0
 23 22  1  0
 24 22  1  0
 24 23  1  0
  5  4  1  0
  6  5  1  0
  7  6  2  0
  8  7  1  0
  9  8  2  0
 10  1  1  0
 10  5  2  0
 10  9  1  0
M  CHG 1  21  -1
M  END
> <i_canvas_ref\_pmid>
39245778

> <i_epik_Tot_Q>
-1

> <i_epik_Tot_abs_Q>
1

> <i_f3d_flags>
0

> <i_lp_mmshare_version>
69129

> <i_m_Source_File_Index>
1

> <i_m_source_file_index>
1

> <b_lp_Chiralities_Consistent>
1

> <b_m_subgroup_collapsed>
0

> <r_canvas_ic50\_nm>
39000

> <r_canvas_ic50\_uM>
39

> <r_canvas_pactivity>
7.4100000000000001

> <r_canvas_pdb\_resolution\_A>
2.8999999999999999

> <r_epik_Charging_Adjusted_Penalty>
5.4369832517620204e-05

> <r_epik_Ionization_Penalty>
5.4402747638992767e-05

> <r_epik_Ionization_Penalty_Charging>
5.4369832517620204e-05

> <r_epik_Ionization_Penalty_Neutral>
3.2915121372562528e-08

> <r_epik_State_Penalty>
0

> <r_lp_Energy>
38.826513999999996

> <r_lp_tautomer_probability>
1

> <s_canvas_activity\_type>
IC50

> <s_canvas_approval\_status>
FDA approved (US 2015; later withdrawn from US market)

> <s_canvas_assay\_description>
14C-urate uptake inhibition; Dai 2024 cryo-EM construct

> <s_canvas_assay\_system>
HEK293-hURAT1 (URAT1_EM construct)

> <s_canvas_benchmark\_pass\_criteria>
L2 Top-500; redock RMSD<=2.0A; pi_in>pi_out

> <s_canvas_cas\_rn>
878672-00-5

> <s_canvas_chembl\_id>
CHEMBL3301572

> <s_canvas_compound\_id>
URAT1_POS_01

> <s_canvas_data\_quality\_flag>
HIGH_ASSAY_HETEROGENEITY

> <s_canvas_in\_train\_project>
FALSE

> <s_canvas_inchi\_key>
FGQFOYHRJSUHMR-UHFFFAOYSA-N

> <s_canvas_key\_interaction\_residues>
Phe-rich cage (Phe401/402/403 region); competes with urate/pyrazinoate at Site 2; apo-like trap

> <s_canvas_mechanism\_summary>
Competitive substrate-pocket occupancy + conformational trapping in inward/apo-like state

> <s_canvas_pdb\_conformation>
inward-open

> <s_canvas_pdb\_id\_alternate>
9DKB;9JDZ

> <s_canvas_pdb\_id\_primary>
9B1H

> <s_canvas_pdb\_method>
cryo-EM

> <s_canvas_pdb\_primary\_doi>
10.2210/pdb9B1H/pdb

> <s_canvas_primary\_endpoint>
URAT1-mediated urate uptake inhibition

> <s_canvas_project\_curation\_note>
Excluded from project training CSV due to >1 log ChEMBL assay conflict; ChEMBL median pAct~5.1 vs literature ~7.0

> <s_canvas_ref\_citation>
Dai Y, Lee CH. Cell Res 2024;34:776-787

> <s_canvas_ref\_doi>
10.1038/s41422-024-01023-1

> <s_canvas_scaffold\_novel\_expected>
TRUE

> <s_canvas_synonyms>
Zurampic; RDEA594; Arhalofenate predecessor program

> <s_canvas_target\_gene>
SLC22A12

> <s_canvas_uniprot\_target>
Q96S37

> <s_canvas_validation\_role>
URAT1_positive_must_recover

> <s_canvas_validation\_tier>
Tier1a

> <s_canvas_validation\_types>
structural_redock;conformation_direction;scaffold_novel_ml

> <s_epik_cmdline>
J2VwaWtfcHl0aG9uJywgJy1waHQnLCAnMC4wJywgJy1waCcsICc3LjQnLCAnLXRuJywgJzgnLCAnLW1hJywgJzUwMCcsICctaW1hZScsICc8aW5maWxlLm1hZT4nLCAnLW9tYWUnLCAnPG91dGZpbGUubWFlPic=

> <s_epik_input>
Tz1DKFtPSF0pW0NIMl1TYzFubmMoQnIpbjEtYyhjKGMyMylbY0hdW2NIXVtjSF1bY0hdMylbY0hdW2NIXWMyW0NIXTRbQ0gyXVtDSDJdNA==

> <s_lp_Force_Field>
S-OPLS

> <s_lp_Variant>
lesinurad-1

> <s_m_Source_File>
benchmark_ligprep-out.maegz

> <s_m_Source_Path>
D:\CADD paper exercise\NLRP3_URAT1\Docking\benchmark_ligprep

> <s_m_entry_id>
26931

> <s_m_entry_name>
literature_benchmarks.1

> <s_m_job_name>
benchmark_ligprep

> <s_m_source_file>
benchmark_ligprep.maegz

> <s_m_subgroup_title>
benchmark_ligprep-out

> <s_m_subgroupid>
benchmark_ligprep-out

> <minimizedAffinity>
-8.61292

> <CNNscore>
0.6505533457

> <CNNaffinity>
6.6672935486

> <CNN_VS>
4.3374300003

> <CNNaffinity_variance>
0.0679164305

$$$$
lesinurad


 24 27  0  0  0  0  0  0  0  0999 V2000
  100.7700  102.3489  105.7811 C   0  0  0  0  0  0  0  0  0  0  0  0
  101.5314  103.0973  104.8855 C   0  0  0  0  0  0  0  0  0  0  0  0
  101.3922  104.4745  104.8111 C   0  0  0  0  0  0  0  0  0  0  0  0
  100.4887  105.1496  105.6287 C   0  0  0  0  0  0  0  0  0  0  0  0
   99.6633  104.4202  106.5412 C   0  0  0  0  0  0  0  0  0  0  0  0
   98.6956  105.0542  107.3728 C   0  0  0  0  0  0  0  0  0  0  0  0
   97.9011  104.3140  108.2407 C   0  0  0  0  0  0  0  0  0  0  0  0
   98.0319  102.9349  108.3103 C   0  0  0  0  0  0  0  0  0  0  0  0
   98.9619  102.2752  107.5159 C   0  0  0  0  0  0  0  0  0  0  0  0
   99.8054  102.9943  106.6197 C   0  0  0  0  0  0  0  0  0  0  0  0
  100.4318   99.9853  104.9935 C   0  0  0  0  0  0  0  0  0  0  0  0
  100.8722   98.7956  105.3251 N   0  0  0  0  0  0  0  0  0  0  0  0
  101.7391   98.9518  106.4011 N   0  0  0  0  0  0  0  0  0  0  0  0
  101.7862  100.2318  106.6646 C   0  0  0  0  0  0  0  0  0  0  0  0
  102.8615  101.0385  108.0163 Br  0  0  0  0  0  0  0  0  0  0  0  0
  100.9751  100.9538  105.8157 N   0  0  0  0  0  0  0  0  0  0  0  0
   99.3041  100.2713  103.6713 S   0  0  0  0  0  0  0  0  0  0  0  0
  100.5109  101.0134  102.5203 C   0  0  0  0  0  0  0  0  0  0  0  0
  101.1764   98.7948  101.9293 O   0  0  0  0  0  0  0  0  0  0  0  0
  100.8401   99.9188  101.4914 C   0  0  0  0  0  0  0  0  0  0  0  0
  100.7276  100.2073  100.2772 O   0  0  0  0  0  0  0  0  0  0  0  0
  100.3659  106.6662  105.5210 C   0  0  0  0  0  0  0  0  0  0  0  0
  101.1784  107.6151  106.3769 C   0  0  0  0  0  0  0  0  0  0  0  0
   99.6890  107.4914  106.5928 C   0  0  0  0  0  0  0  0  0  0  0  0
 20 19  2  0
 21 20  1  0
 18 20  1  0
 17 18  1  0
 11 17  1  0
 12 11  2  0
 13 12  1  0
 14 13  2  0
 15 14  1  0
 16 11  1  0
 16 14  1  0
  1 16  1  0
  2  1  2  0
  3  2  1  0
  4  3  2  0
 22  4  1  0
 23 22  1  0
 24 22  1  0
 24 23  1  0
  5  4  1  0
  6  5  1  0
  7  6  2  0
  8  7  1  0
  9  8  2  0
 10  1  1  0
 10  5  2  0
 10  9  1  0
M  CHG 1  21  -1
M  END
> <i_canvas_ref\_pmid>
39245778

> <i_epik_Tot_Q>
-1

> <i_epik_Tot_abs_Q>
1

> <i_f3d_flags>
0

> <i_lp_mmshare_version>
69129

> <i_m_Source_File_Index>
1

> <i_m_source_file_index>
1

> <b_lp_Chiralities_Consistent>
1

> <b_m_subgroup_collapsed>
0

> <r_canvas_ic50\_nm>
39000

> <r_canvas_ic50\_uM>
39

> <r_canvas_pactivity>
7.4100000000000001

> <r_canvas_pdb\_resolution\_A>
2.8999999999999999

> <r_epik_Charging_Adjusted_Penalty>
5.4369832517620204e-05

> <r_epik_Ionization_Penalty>
5.4402747638992767e-05

> <r_epik_Ionization_Penalty_Charging>
5.4369832517620204e-05

> <r_epik_Ionization_Penalty_Neutral>
3.2915121372562528e-08

> <r_epik_State_Penalty>
0

> <r_lp_Energy>
38.826513999999996

> <r_lp_tautomer_probability>
1

> <s_canvas_activity\_type>
IC50

> <s_canvas_approval\_status>
FDA approved (US 2015; later withdrawn from US market)

> <s_canvas_assay\_description>
14C-urate uptake inhibition; Dai 2024 cryo-EM construct

> <s_canvas_assay\_system>
HEK293-hURAT1 (URAT1_EM construct)

> <s_canvas_benchmark\_pass\_criteria>
L2 Top-500; redock RMSD<=2.0A; pi_in>pi_out

> <s_canvas_cas\_rn>
878672-00-5

> <s_canvas_chembl\_id>
CHEMBL3301572

> <s_canvas_compound\_id>
URAT1_POS_01

> <s_canvas_data\_quality\_flag>
HIGH_ASSAY_HETEROGENEITY

> <s_canvas_in\_train\_project>
FALSE

> <s_canvas_inchi\_key>
FGQFOYHRJSUHMR-UHFFFAOYSA-N

> <s_canvas_key\_interaction\_residues>
Phe-rich cage (Phe401/402/403 region); competes with urate/pyrazinoate at Site 2; apo-like trap

> <s_canvas_mechanism\_summary>
Competitive substrate-pocket occupancy + conformational trapping in inward/apo-like state

> <s_canvas_pdb\_conformation>
inward-open

> <s_canvas_pdb\_id\_alternate>
9DKB;9JDZ

> <s_canvas_pdb\_id\_primary>
9B1H

> <s_canvas_pdb\_method>
cryo-EM

> <s_canvas_pdb\_primary\_doi>
10.2210/pdb9B1H/pdb

> <s_canvas_primary\_endpoint>
URAT1-mediated urate uptake inhibition

> <s_canvas_project\_curation\_note>
Excluded from project training CSV due to >1 log ChEMBL assay conflict; ChEMBL median pAct~5.1 vs literature ~7.0

> <s_canvas_ref\_citation>
Dai Y, Lee CH. Cell Res 2024;34:776-787

> <s_canvas_ref\_doi>
10.1038/s41422-024-01023-1

> <s_canvas_scaffold\_novel\_expected>
TRUE

> <s_canvas_synonyms>
Zurampic; RDEA594; Arhalofenate predecessor program

> <s_canvas_target\_gene>
SLC22A12

> <s_canvas_uniprot\_target>
Q96S37

> <s_canvas_validation\_role>
URAT1_positive_must_recover

> <s_canvas_validation\_tier>
Tier1a

> <s_canvas_validation\_types>
structural_redock;conformation_direction;scaffold_novel_ml

> <s_epik_cmdline>
J2VwaWtfcHl0aG9uJywgJy1waHQnLCAnMC4wJywgJy1waCcsICc3LjQnLCAnLXRuJywgJzgnLCAnLW1hJywgJzUwMCcsICctaW1hZScsICc8aW5maWxlLm1hZT4nLCAnLW9tYWUnLCAnPG91dGZpbGUubWFlPic=

> <s_epik_input>
Tz1DKFtPSF0pW0NIMl1TYzFubmMoQnIpbjEtYyhjKGMyMylbY0hdW2NIXVtjSF1bY0hdMylbY0hdW2NIXWMyW0NIXTRbQ0gyXVtDSDJdNA==

> <s_lp_Force_Field>
S-OPLS

> <s_lp_Variant>
lesinurad-1

> <s_m_Source_File>
benchmark_ligprep-out.maegz

> <s_m_Source_Path>
D:\CADD paper exercise\NLRP3_URAT1\Docking\benchmark_ligprep

> <s_m_entry_id>
26931

> <s_m_entry_name>
literature_benchmarks.1

> <s_m_job_name>
benchmark_ligprep

> <s_m_source_file>
benchmark_ligprep.maegz

> <s_m_subgroup_title>
benchmark_ligprep-out

> <s_m_subgroupid>
benchmark_ligprep-out

> <minimizedAffinity>
-8.66881

> <CNNscore>
0.6155685782

> <CNNaffinity>
6.7939896584

> <CNN_VS>
4.1821665764

> <CNNaffinity_variance>
0.0438782983

$$$$
lesinurad


 24 27  0  0  0  0  0  0  0  0999 V2000
   99.1026  103.4280  107.0549 C   0  0  0  0  0  0  0  0  0  0  0  0
   99.1417  102.2821  107.8469 C   0  0  0  0  0  0  0  0  0  0  0  0
  100.2198  101.4128  107.7875 C   0  0  0  0  0  0  0  0  0  0  0  0
  101.2943  101.6593  106.9359 C   0  0  0  0  0  0  0  0  0  0  0  0
  101.2839  102.8062  106.0812 C   0  0  0  0  0  0  0  0  0  0  0  0
  102.3369  103.0865  105.1632 C   0  0  0  0  0  0  0  0  0  0  0  0
  102.2899  104.2044  104.3382 C   0  0  0  0  0  0  0  0  0  0  0  0
  101.2079  105.0707  104.3891 C   0  0  0  0  0  0  0  0  0  0  0  0
  100.1581  104.8347  105.2684 C   0  0  0  0  0  0  0  0  0  0  0  0
  100.1687  103.7074  106.1407 C   0  0  0  0  0  0  0  0  0  0  0  0
   96.7210  104.1182  106.6389 C   0  0  0  0  0  0  0  0  0  0  0  0
   95.9393  105.1113  106.9883 N   0  0  0  0  0  0  0  0  0  0  0  0
   96.6833  105.9726  107.7871 N   0  0  0  0  0  0  0  0  0  0  0  0
   97.8797  105.4543  107.8880 C   0  0  0  0  0  0  0  0  0  0  0  0
   99.3125  106.1837  108.9122 Br  0  0  0  0  0  0  0  0  0  0  0  0
   97.9831  104.2771  107.1784 N   0  0  0  0  0  0  0  0  0  0  0  0
   96.1971  102.7792  105.6219 S   0  0  0  0  0  0  0  0  0  0  0  0
   95.7938  103.7778  104.1480 C   0  0  0  0  0  0  0  0  0  0  0  0
   94.0628  103.0648  102.6615 O   0  0  0  0  0  0  0  0  0  0  0  0
   95.1948  102.7974  103.1257 C   0  0  0  0  0  0  0  0  0  0  0  0
   95.8841  101.8037  102.7979 O   0  0  0  0  0  0  0  0  0  0  0  0
  102.4648  100.6818  106.9006 C   0  0  0  0  0  0  0  0  0  0  0  0
  102.2973   99.1965  107.1435 C   0  0  0  0  0  0  0  0  0  0  0  0
  103.0174  100.0508  108.1593 C   0  0  0  0  0  0  0  0  0  0  0  0
 20 19  2  0
 21 20  1  0
 18 20  1  0
 17 18  1  0
 11 17  1  0
 12 11  2  0
 13 12  1  0
 14 13  2  0
 15 14  1  0
 16 11  1  0
 16 14  1  0
  1 16  1  0
  2  1  2  0
  3  2  1  0
  4  3  2  0
 22  4  1  0
 23 22  1  0
 24 22  1  0
 24 23  1  0
  5  4  1  0
  6  5  1  0
  7  6  2  0
  8  7  1  0
  9  8  2  0
 10  1  1  0
 10  5  2  0
 10  9  1  0
M  CHG 1  21  -1
M  END
> <i_canvas_ref\_pmid>
39245778

> <i_epik_Tot_Q>
-1

> <i_epik_Tot_abs_Q>
1

> <i_f3d_flags>
0

> <i_lp_mmshare_version>
69129

> <i_m_Source_File_Index>
1

> <i_m_source_file_index>
1

> <b_lp_Chiralities_Consistent>
1

> <b_m_subgroup_collapsed>
0

> <r_canvas_ic50\_nm>
39000

> <r_canvas_ic50\_uM>
39

> <r_canvas_pactivity>
7.4100000000000001

> <r_canvas_pdb\_resolution\_A>
2.8999999999999999

> <r_epik_Charging_Adjusted_Penalty>
5.4369832517620204e-05

> <r_epik_Ionization_Penalty>
5.4402747638992767e-05

> <r_epik_Ionization_Penalty_Charging>
5.4369832517620204e-05

> <r_epik_Ionization_Penalty_Neutral>
3.2915121372562528e-08

> <r_epik_State_Penalty>
0

> <r_lp_Energy>
38.826513999999996

> <r_lp_tautomer_probability>
1

> <s_canvas_activity\_type>
IC50

> <s_canvas_approval\_status>
FDA approved (US 2015; later withdrawn from US market)

> <s_canvas_assay\_description>
14C-urate uptake inhibition; Dai 2024 cryo-EM construct

> <s_canvas_assay\_system>
HEK293-hURAT1 (URAT1_EM construct)

> <s_canvas_benchmark\_pass\_criteria>
L2 Top-500; redock RMSD<=2.0A; pi_in>pi_out

> <s_canvas_cas\_rn>
878672-00-5

> <s_canvas_chembl\_id>
CHEMBL3301572

> <s_canvas_compound\_id>
URAT1_POS_01

> <s_canvas_data\_quality\_flag>
HIGH_ASSAY_HETEROGENEITY

> <s_canvas_in\_train\_project>
FALSE

> <s_canvas_inchi\_key>
FGQFOYHRJSUHMR-UHFFFAOYSA-N

> <s_canvas_key\_interaction\_residues>
Phe-rich cage (Phe401/402/403 region); competes with urate/pyrazinoate at Site 2; apo-like trap

> <s_canvas_mechanism\_summary>
Competitive substrate-pocket occupancy + conformational trapping in inward/apo-like state

> <s_canvas_pdb\_conformation>
inward-open

> <s_canvas_pdb\_id\_alternate>
9DKB;9JDZ

> <s_canvas_pdb\_id\_primary>
9B1H

> <s_canvas_pdb\_method>
cryo-EM

> <s_canvas_pdb\_primary\_doi>
10.2210/pdb9B1H/pdb

> <s_canvas_primary\_endpoint>
URAT1-mediated urate uptake inhibition

> <s_canvas_project\_curation\_note>
Excluded from project training CSV due to >1 log ChEMBL assay conflict; ChEMBL median pAct~5.1 vs literature ~7.0

> <s_canvas_ref\_citation>
Dai Y, Lee CH. Cell Res 2024;34:776-787

> <s_canvas_ref\_doi>
10.1038/s41422-024-01023-1

> <s_canvas_scaffold\_novel\_expected>
TRUE

> <s_canvas_synonyms>
Zurampic; RDEA594; Arhalofenate predecessor program

> <s_canvas_target\_gene>
SLC22A12

> <s_canvas_uniprot\_target>
Q96S37

> <s_canvas_validation\_role>
URAT1_positive_must_recover

> <s_canvas_validation\_tier>
Tier1a

> <s_canvas_validation\_types>
structural_redock;conformation_direction;scaffold_novel_ml

> <s_epik_cmdline>
J2VwaWtfcHl0aG9uJywgJy1waHQnLCAnMC4wJywgJy1waCcsICc3LjQnLCAnLXRuJywgJzgnLCAnLW1hJywgJzUwMCcsICctaW1hZScsICc8aW5maWxlLm1hZT4nLCAnLW9tYWUnLCAnPG91dGZpbGUubWFlPic=

> <s_epik_input>
Tz1DKFtPSF0pW0NIMl1TYzFubmMoQnIpbjEtYyhjKGMyMylbY0hdW2NIXVtjSF1bY0hdMylbY0hdW2NIXWMyW0NIXTRbQ0gyXVtDSDJdNA==

> <s_lp_Force_Field>
S-OPLS

> <s_lp_Variant>
lesinurad-1

> <s_m_Source_File>
benchmark_ligprep-out.maegz

> <s_m_Source_Path>
D:\CADD paper exercise\NLRP3_URAT1\Docking\benchmark_ligprep

> <s_m_entry_id>
26931

> <s_m_entry_name>
literature_benchmarks.1

> <s_m_job_name>
benchmark_ligprep

> <s_m_source_file>
benchmark_ligprep.maegz

> <s_m_subgroup_title>
benchmark_ligprep-out

> <s_m_subgroupid>
benchmark_ligprep-out

> <minimizedAffinity>
-8.27725

> <CNNscore>
0.6155011058

> <CNNaffinity>
6.4888763428

> <CNN_VS>
3.9939105511

> <CNNaffinity_variance>
0.0398775935

$$$$
