JNKSAKWNXKWMIA-UHFFFAOYSA-N
     RDKit          3D

 19 21  0  0  0  0  0  0  0  0999 V2000
  131.9320  115.0530   42.9830 C   0  0  0  0  0  0  0  0  0  0  0  0
  132.8170  115.0920   41.8660 O   0  0  0  0  0  0  0  0  0  0  0  0
  133.1340  116.3260   41.3550 C   0  0  0  0  0  0  0  0  0  0  0  0
  133.0520  117.5240   42.0690 C   0  0  0  0  0  0  0  0  0  0  0  0
  133.4000  118.7300   41.4600 C   0  0  0  0  0  0  0  0  0  0  0  0
  133.8310  118.7490   40.1360 C   0  0  0  0  0  0  0  0  0  0  0  0
  133.9200  117.5590   39.4010 C   0  0  0  0  0  0  0  0  0  0  0  0
  134.3470  117.5610   38.0730 C   0  0  0  0  0  0  0  0  0  0  0  0
  134.4270  116.3650   37.3710 C   0  0  0  0  0  0  0  0  0  0  0  0
  134.0940  115.1880   37.9520 N   0  0  0  0  0  0  0  0  0  0  0  0
  134.1870  113.9480   37.2000 C   0  0  0  0  0  0  0  0  0  0  0  0
  133.5450  113.8410   35.9600 C   0  0  0  0  0  0  0  0  0  0  0  0
  133.6330  112.6470   35.2410 C   0  0  0  0  0  0  0  0  0  0  0  0
  134.3560  111.5720   35.7590 C   0  0  0  0  0  0  0  0  0  0  0  0
  134.9920  111.6920   36.9940 C   0  0  0  0  0  0  0  0  0  0  0  0
  135.8880  110.3680   37.6250 Cl  0  0  0  0  0  0  0  0  0  0  0  0
  134.9120  112.8760   37.7260 C   0  0  0  0  0  0  0  0  0  0  0  0
  133.6740  115.1690   39.2420 C   0  0  0  0  0  0  0  0  0  0  0  0
  133.5730  116.3380   40.0090 C   0  0  0  0  0  0  0  0  0  0  0  0
  1  2  1  0
  2  3  1  0
  3  4  2  0
  4  5  1  0
  5  6  2  0
  6  7  1  0
  7  8  2  0
  8  9  1  0
  9 10  2  0
 10 11  1  0
 11 12  2  0
 12 13  1  0
 13 14  2  0
 14 15  1  0
 15 16  1  0
 15 17  2  0
 10 18  1  0
 18 19  2  0
 19  3  1  0
 19  7  1  0
 17 11  1  0
M  CHG  1  10   1
M  END
$$$$
