MSLIBSZZLAWHQM-UHFFFAOYSA-N
     RDKit          3D

 25 27  0  0  0  0  0  0  0  0999 V2000
   20.0760    5.8660   22.6920 C   0  0  0  0  0  0  0  0  0  0  0  0
   19.6430    4.8040   22.0020 C   0  0  0  0  0  0  0  0  0  0  0  0
   18.6050    3.8970   22.5740 C   0  0  0  0  0  0  0  0  0  0  0  0
   17.8130    3.3070   21.8490 O   0  0  0  0  0  0  0  0  0  0  0  0
   18.6880    3.8240   23.9500 N   0  0  0  0  0  0  0  0  0  0  0  0
   17.8520    3.0880   24.8170 C   0  0  0  0  0  0  0  0  0  0  0  0
   18.2860    1.8250   25.2080 C   0  0  0  0  0  0  0  0  0  0  0  0
   17.5010    1.0430   26.0620 C   0  0  0  0  0  0  0  0  0  0  0  0
   16.2800    1.4860   26.5440 C   0  0  0  0  0  0  0  0  0  0  0  0
   15.5950    0.6740   27.3610 N   0  0  0  0  0  0  0  0  0  0  0  0
   14.4050    1.1050   27.8320 C   0  0  0  0  0  0  0  0  0  0  0  0
   13.8450    2.3340   27.5300 C   0  0  0  0  0  0  0  0  0  0  0  0
   12.5420    2.6260   28.0430 C   0  0  0  0  0  0  0  0  0  0  0  0
   11.4810    2.8060   28.4790 N   0  0  0  0  0  0  0  0  0  0  0  0
   14.5570    3.1940   26.6790 C   0  0  0  0  0  0  0  0  0  0  0  0
   14.0710    4.4820   26.3430 N   0  0  0  0  0  0  0  0  0  0  0  0
   13.1830    4.8820   25.3280 C   0  0  0  0  0  0  0  0  0  0  0  0
   13.4680    4.5330   24.0010 C   0  0  0  0  0  0  0  0  0  0  0  0
   12.5950    4.8710   22.9620 C   0  0  0  0  0  0  0  0  0  0  0  0
   11.4190    5.5630   23.2390 C   0  0  0  0  0  0  0  0  0  0  0  0
   11.1230    5.9090   24.5540 C   0  0  0  0  0  0  0  0  0  0  0  0
    9.5290    6.8510   24.9380 Br  0  0  0  0  0  0  0  0  0  0  0  0
   11.9930    5.5710   25.5940 C   0  0  0  0  0  0  0  0  0  0  0  0
   15.8160    2.7630   26.1640 C   0  0  0  0  0  0  0  0  0  0  0  0
   16.6290    3.5510   25.3060 C   0  0  0  0  0  0  0  0  0  0  0  0
  1  2  2  0
  2  3  1  0
  3  4  2  0
  3  5  1  0
  5  6  1  0
  6  7  2  0
  7  8  1  0
  8  9  2  0
  9 10  1  0
 10 11  2  0
 11 12  1  0
 12 13  1  0
 13 14  3  0
 12 15  2  0
 15 16  1  0
 16 17  1  0
 17 18  2  0
 18 19  1  0
 19 20  2  0
 20 21  1  0
 21 22  1  0
 21 23  2  0
 15 24  1  0
 24 25  2  0
 25  6  1  0
 24  9  1  0
 23 17  1  0
M  END
$$$$
