YMOFSDWBUFAIRB-UHFFFAOYSA-N
     RDKit          3D

 26 29  0  0  0  0  0  0  0  0999 V2000
   -5.1920    5.8750   18.1660 N   0  0  0  0  0  0  0  0  0  0  0  0
   -5.1400    7.1560   17.9940 C   0  0  0  0  0  0  0  0  0  0  0  0
   -5.1520    7.6180   16.7210 N   0  0  0  0  0  0  0  0  0  0  0  0
   -5.0770    8.1050   19.1360 C   0  0  0  0  0  0  0  0  0  0  0  0
   -6.1090    8.1110   20.0840 C   0  0  0  0  0  0  0  0  0  0  0  0
   -6.0790    8.9880   21.1760 C   0  0  0  0  0  0  0  0  0  0  0  0
   -4.9760    9.8350   21.2620 C   0  0  0  0  0  0  0  0  0  0  0  0
   -4.7620   10.7540   22.2440 O   0  0  0  0  0  0  0  0  0  0  0  0
   -3.5780   11.3670   21.9650 C   0  0  0  0  0  0  0  0  0  0  0  0
   -3.1410   12.4180   22.9200 C   0  0  0  0  0  0  0  0  0  0  0  0
   -1.6760   12.2350   23.3140 C   0  0  0  0  0  0  0  0  0  0  0  0
   -1.5080   11.0960   24.2530 C   0  0  0  0  0  0  0  0  0  0  0  0
   -0.6940    9.9840   24.2560 C   0  0  0  0  0  0  0  0  0  0  0  0
   -1.0030    9.2590   25.4390 C   0  0  0  0  0  0  0  0  0  0  0  0
   -0.5520    8.0670   26.0320 C   0  0  0  0  0  0  0  0  0  0  0  0
   -1.1310    7.6650   27.2490 C   0  0  0  0  0  0  0  0  0  0  0  0
   -0.6770    6.4040   27.8920 C   0  0  0  0  0  0  0  0  0  0  0  0
   -0.2720    5.3870   27.2010 N   0  0  0  0  0  0  0  0  0  0  0  0
   -0.6780    6.2850   29.2400 N   0  0  0  0  0  0  0  0  0  0  0  0
   -2.1350    8.4270   27.8630 C   0  0  0  0  0  0  0  0  0  0  0  0
   -2.5910    9.6170   27.2830 C   0  0  0  0  0  0  0  0  0  0  0  0
   -1.9980    9.9890   26.0780 C   0  0  0  0  0  0  0  0  0  0  0  0
   -2.3040   11.1040   25.3600 O   0  0  0  0  0  0  0  0  0  0  0  0
   -3.0310   10.8510   20.8100 C   0  0  0  0  0  0  0  0  0  0  0  0
   -3.9320    9.8560   20.3440 C   0  0  0  0  0  0  0  0  0  0  0  0
   -3.9760    8.9730   19.2510 C   0  0  0  0  0  0  0  0  0  0  0  0
  1  2  2  0
  2  3  1  0
  2  4  1  0
  4  5  2  0
  5  6  1  0
  6  7  2  0
  7  8  1  0
  8  9  1  0
  9 10  1  0
 10 11  1  0
 11 12  1  0
 12 13  2  0
 13 14  1  0
 14 15  2  0
 15 16  1  0
 16 17  1  0
 17 18  2  0
 17 19  1  0
 16 20  2  0
 20 21  1  0
 21 22  2  0
 22 23  1  0
  9 24  2  0
 24 25  1  0
 25 26  2  0
 26  4  1  0
 25  7  1  0
 23 12  1  0
 22 14  1  0
M  END
$$$$
