ONKOHQZZVMTPOM-UHFFFAOYSA-N
     RDKit          3D

 34 36  0  0  0  0  0  0  0  0999 V2000
    3.0390    8.8320   -5.4650 C   0  0  0  0  0  0  0  0  0  0  0  0
    3.0110    7.4300   -5.7460 O   0  0  0  0  0  0  0  0  0  0  0  0
    3.5640    6.7340   -4.6990 C   0  0  0  0  0  0  0  0  0  0  0  0
    2.7840    6.5470   -3.5510 C   0  0  0  0  0  0  0  0  0  0  0  0
    3.3020    5.8600   -2.4520 C   0  0  0  0  0  0  0  0  0  0  0  0
    2.6240    5.6070   -1.2900 O   0  0  0  0  0  0  0  0  0  0  0  0
    2.0130    6.6880   -0.6030 C   0  0  0  0  0  0  0  0  0  0  0  0
    2.9410    7.8390   -0.2410 C   0  0  0  0  0  0  0  0  0  0  0  0
    4.1510    7.8130   -0.0940 O   0  0  0  0  0  0  0  0  0  0  0  0
    2.2640    8.9960   -0.0690 O   0  0  0  0  0  0  0  0  0  0  0  0
    4.6150    5.3580   -2.5090 C   0  0  0  0  0  0  0  0  0  0  0  0
    5.2020    4.6040   -1.3470 C   0  0  0  0  0  0  0  0  0  0  0  0
    5.3970    5.5770   -3.6560 C   0  0  0  0  0  0  0  0  0  0  0  0
    4.8880    6.2810   -4.7530 C   0  0  0  0  0  0  0  0  0  0  0  0
    5.9590    6.5320   -6.1620 S   0  0  0  0  0  0  0  0  0  0  0  0
    7.0110    5.0470   -6.0370 C   0  0  0  0  0  0  0  0  0  0  0  0
    8.1980    5.0800   -6.9700 C   0  0  0  0  0  0  0  0  0  0  0  0
    8.6950    3.8970   -7.5320 C   0  0  0  0  0  0  0  0  0  0  0  0
    9.7820    3.9220   -8.4110 C   0  0  0  0  0  0  0  0  0  0  0  0
   10.3890    5.1340   -8.7430 C   0  0  0  0  0  0  0  0  0  0  0  0
   11.4520    5.3010   -9.5850 O   0  0  0  0  0  0  0  0  0  0  0  0
   11.2600    4.9420  -10.9500 C   0  0  0  0  0  0  0  0  0  0  0  0
   11.2380    6.2110  -11.7670 C   0  0  0  0  0  0  0  0  0  0  0  0
   12.4340    6.7710  -12.2400 C   0  0  0  0  0  0  0  0  0  0  0  0
   12.4150    7.9340  -13.0120 C   0  0  0  0  0  0  0  0  0  0  0  0
   11.2000    8.5530  -13.3400 C   0  0  0  0  0  0  0  0  0  0  0  0
   11.1810    9.8200  -14.1570 C   0  0  0  0  0  0  0  0  0  0  0  0
   11.4540    9.5930  -15.4720 F   0  0  0  0  0  0  0  0  0  0  0  0
   12.0940   10.7430  -13.7400 F   0  0  0  0  0  0  0  0  0  0  0  0
    9.9750   10.4570  -14.1330 F   0  0  0  0  0  0  0  0  0  0  0  0
   10.0040    7.9880  -12.8700 C   0  0  0  0  0  0  0  0  0  0  0  0
   10.0230    6.8240  -12.0990 C   0  0  0  0  0  0  0  0  0  0  0  0
    9.8950    6.3160   -8.1860 C   0  0  0  0  0  0  0  0  0  0  0  0
    8.8090    6.2930   -7.3080 C   0  0  0  0  0  0  0  0  0  0  0  0
  1  2  1  0
  2  3  1  0
  3  4  2  0
  4  5  1  0
  5  6  1  0
  6  7  1  0
  7  8  1  0
  8  9  2  0
  8 10  1  0
  5 11  2  0
 11 12  1  0
 11 13  1  0
 13 14  2  0
 14 15  1  0
 15 16  1  0
 16 17  1  0
 17 18  2  0
 18 19  1  0
 19 20  2  0
 20 21  1  0
 21 22  1  0
 22 23  1  0
 23 24  2  0
 24 25  1  0
 25 26  2  0
 26 27  1  0
 27 28  1  0
 27 29  1  0
 27 30  1  0
 26 31  1  0
 31 32  2  0
 20 33  1  0
 33 34  2  0
 14  3  1  0
 34 17  1  0
 32 23  1  0
M  END
$$$$
