LBTQKBBDVONGGY-LFVJCYFKSA-N
     RDKit          3D

 30 33  0  0  0  0  0  0  0  0999 V2000
  134.4560  119.5000   38.4160 C   0  0  0  0  0  0  0  0  0  0  0  0
  133.8970  119.5460   39.7230 O   0  0  0  0  0  0  0  0  0  0  0  0
  133.7880  118.3570   40.3900 C   0  0  0  0  0  0  0  0  0  0  0  0
  132.9860  118.1120   41.5050 C   0  0  0  0  0  0  0  0  0  0  0  0
  132.9760  116.8440   42.0960 C   0  0  0  0  0  0  0  0  0  0  0  0
  133.7600  115.8110   41.5700 C   0  0  0  0  0  0  0  0  0  0  0  0
  134.5630  116.0440   40.4440 C   0  0  0  0  0  0  0  0  0  0  0  0
  134.5760  117.3250   39.8710 C   0  0  0  0  0  0  0  0  0  0  0  0
  135.4440  114.9580   39.8900 C   0  0  0  0  0  0  0  0  0  0  0  0
  134.8200  113.5820   40.1060 C   0  0  0  0  0  0  0  0  0  0  0  0
  134.4730  113.3660   41.5510 C   0  0  0  0  0  0  0  0  0  0  0  0
  134.7450  112.2710   42.2840 C   0  0  0  0  0  0  0  0  0  0  0  0
  135.4370  111.0910   41.7690 C   0  0  0  0  0  0  0  0  0  0  0  0
  136.5420  110.5720   42.4480 C   0  0  0  0  0  0  0  0  0  0  0  0
  137.2140  109.4550   41.9450 C   0  0  0  0  0  0  0  0  0  0  0  0
  136.7840  108.8380   40.7600 C   0  0  0  0  0  0  0  0  0  0  0  0
  137.5250  107.6330   40.2130 C   0  0  0  0  0  0  0  0  0  0  0  0
  138.9050  107.9410   39.7860 N   0  0  0  0  0  0  0  0  0  0  0  0
  139.7200  106.7240   39.7320 C   0  0  0  0  0  0  0  0  0  0  0  0
  138.9120  108.5960   38.4640 C   0  0  0  0  0  0  0  0  0  0  0  0
  138.7690  110.1030   38.5350 C   0  0  0  0  0  0  0  0  0  0  0  0
  139.5040  110.8460   39.4690 C   0  0  0  0  0  0  0  0  0  0  0  0
  139.3600  112.2330   39.5430 C   0  0  0  0  0  0  0  0  0  0  0  0
  138.4760  112.8890   38.6870 C   0  0  0  0  0  0  0  0  0  0  0  0
  137.7360  112.1620   37.7580 C   0  0  0  0  0  0  0  0  0  0  0  0
  137.8790  110.7750   37.6840 C   0  0  0  0  0  0  0  0  0  0  0  0
  135.6770  109.3650   40.0830 C   0  0  0  0  0  0  0  0  0  0  0  0
  135.0060  110.4830   40.5850 C   0  0  0  0  0  0  0  0  0  0  0  0
  133.7440  114.4810   42.2370 C   0  0  0  0  0  0  0  0  0  0  0  0
  133.1490  114.3210   43.2980 O   0  0  0  0  0  0  0  0  0  0  0  0
  1  2  1  0
  2  3  1  0
  3  4  2  0
  4  5  1  0
  5  6  2  0
  6  7  1  0
  7  8  2  0
  7  9  1  0
  9 10  1  0
 10 11  1  0
 11 12  2  0
 12 13  1  0
 13 14  2  0
 14 15  1  0
 15 16  2  0
 16 17  1  0
 17 18  1  0
 18 19  1  0
 18 20  1  0
 20 21  1  0
 21 22  2  0
 22 23  1  0
 23 24  2  0
 24 25  1  0
 25 26  2  0
 16 27  1  0
 27 28  2  0
 11 29  1  0
 29 30  2  0
  8  3  1  0
 28 13  1  0
 29  6  1  0
 26 21  1  0
M  END
$$$$
