EH40_23_3RCD_Vina_mode01
     RDKit          3D

 34 37  0  0  0  0  0  0  0  0999 V2000
   12.9750    1.9130   29.0480 C   0  0  0  0  0  0  0  0  0  0  0  0
   11.7420    2.2580   28.4810 C   0  0  0  0  0  0  0  0  0  0  0  0
   10.5800    2.2470   29.2530 C   0  0  0  0  0  0  0  0  0  0  0  0
   10.6250    1.8990   30.6140 C   0  0  0  0  0  0  0  0  0  0  0  0
   11.8620    1.5640   31.1780 C   0  0  0  0  0  0  0  0  0  0  0  0
   11.9790    1.1320   32.8480 Cl  0  0  0  0  0  0  0  0  0  0  0  0
   13.0220    1.5770   30.4020 C   0  0  0  0  0  0  0  0  0  0  0  0
   14.1890    1.9200   28.3380 N   0  0  0  0  0  0  0  0  0  0  0  0
   15.0610    0.9040   27.8980 C   0  0  0  0  0  0  0  0  0  0  0  0
   17.2810    2.6740   25.3830 C   0  0  0  0  0  0  0  0  0  0  0  0
   16.2700    2.4780   26.3260 C   0  0  0  0  0  0  0  0  0  0  0  0
   18.1080    1.6030   25.0270 C   0  0  0  0  0  0  0  0  0  0  0  0
   16.0680    1.2050   26.9270 C   0  0  0  0  0  0  0  0  0  0  0  0
   17.9390    0.3430   25.5950 C   0  0  0  0  0  0  0  0  0  0  0  0
   16.9210    0.1230   26.5500 C   0  0  0  0  0  0  0  0  0  0  0  0
   16.7840   -1.1220   27.0900 N   0  0  0  0  0  0  0  0  0  0  0  0
   14.9330   -0.3350   28.4360 N   0  0  0  0  0  0  0  0  0  0  0  0
   15.7980   -1.2810   28.0040 C   0  0  0  0  0  0  0  0  0  0  0  0
   17.4150    3.9650   24.8420 N   0  0  0  0  0  0  0  0  0  0  0  0
   16.8190    5.1400   25.2490 C   0  0  0  0  0  0  0  0  0  0  0  0
   14.1750    4.4190   23.0980 N   0  0  0  0  0  0  0  0  0  0  0  0
   14.8250    4.9780   23.8760 C   0  0  0  0  0  0  0  0  0  0  0  0
   15.6430    5.6450   24.8370 C   0  0  0  0  0  0  0  0  0  0  0  0
   15.1580    6.8830   25.3480 C   0  0  0  0  0  0  0  0  0  0  0  0
   14.7810    7.8910   25.7720 N   0  0  0  0  0  0  0  0  0  0  0  0
    9.5170    1.8710   31.4420 O   0  0  0  0  0  0  0  0  0  0  0  0
    8.3080    1.2670   30.9870 C   0  0  0  0  0  0  0  0  0  0  0  0
    8.1930   -0.1640   31.5000 C   0  0  0  0  0  0  0  0  0  0  0  0
    9.2560   -1.0510   31.3040 C   0  0  0  0  0  0  0  0  0  0  0  0
    7.0500   -0.6070   32.1800 C   0  0  0  0  0  0  0  0  0  0  0  0
    9.1770   -2.3650   31.7690 C   0  0  0  0  0  0  0  0  0  0  0  0
    6.9700   -1.9200   32.6440 C   0  0  0  0  0  0  0  0  0  0  0  0
    8.0320   -2.8000   32.4390 C   0  0  0  0  0  0  0  0  0  0  0  0
   10.2090   -3.2160   31.5720 F   0  0  0  0  0  0  0  0  0  0  0  0
  2  1  1  0
  3  2  2  0
  4  3  1  0
  5  4  2  0
  6  5  1  0
  7  5  1  0
  7  1  2  0
  8  1  1  0
  9  8  1  0
 11 10  2  0
 12 10  1  0
 13 11  1  0
 13  9  2  0
 14 12  2  0
 15 13  1  0
 15 14  1  0
 16 15  2  0
 17  9  1  0
 18 17  2  0
 18 16  1  0
 19 10  1  0
 20 19  1  0
 22 21  3  0
 23 22  1  0
 23 20  2  3
 24 23  1  0
 25 24  3  0
 26  4  1  0
 27 26  1  0
 28 27  1  0
 29 28  1  0
 30 28  2  0
 31 29  2  0
 32 30  1  0
 33 32  2  0
 33 31  1  0
 34 31  1  0
M  END
$$$$
