ZXWVCCFKIRBLDP-UHFFFAOYSA-N
     RDKit          3D

 39 43  0  0  0  0  0  0  0  0999 V2000
    6.4440    5.4250   -6.1530 C   0  0  0  0  0  0  0  0  0  0  0  0
    7.4100    6.3210   -6.9150 C   0  0  0  0  0  0  0  0  0  0  0  0
    8.8760    5.8860   -6.7950 C   0  0  0  0  0  0  0  0  0  0  0  0
    9.4020    5.1320   -8.0090 C   0  0  0  0  0  0  0  0  0  0  0  0
    9.2950    3.7220   -8.0470 C   0  0  0  0  0  0  0  0  0  0  0  0
    8.7340    3.1250   -6.9460 O   0  0  0  0  0  0  0  0  0  0  0  0
    9.5850    2.8040   -5.8480 C   0  0  0  0  0  0  0  0  0  0  0  0
    8.9770    3.3650   -4.5670 C   0  0  0  0  0  0  0  0  0  0  0  0
    8.6430    2.2730   -3.5560 C   0  0  0  0  0  0  0  0  0  0  0  0
    9.4280    1.1240   -3.8790 O   0  0  0  0  0  0  0  0  0  0  0  0
   10.7210    1.1080   -3.4270 C   0  0  0  0  0  0  0  0  0  0  0  0
   11.1250    1.2570   -2.1010 C   0  0  0  0  0  0  0  0  0  0  0  0
   12.4820    1.2250   -1.7470 C   0  0  0  0  0  0  0  0  0  0  0  0
   13.4290    1.0360   -2.7660 C   0  0  0  0  0  0  0  0  0  0  0  0
   13.0500    0.8830   -4.1020 C   0  0  0  0  0  0  0  0  0  0  0  0
   14.2380    0.7150   -4.8620 C   0  0  0  0  0  0  0  0  0  0  0  0
   15.3040    0.7620   -3.9930 C   0  0  0  0  0  0  0  0  0  0  0  0
   14.8070    0.9650   -2.7300 N   0  0  0  0  0  0  0  0  0  0  0  0
   15.6230    1.0230   -1.5260 C   0  0  0  0  0  0  0  0  0  0  0  0
   16.2220    2.3830   -1.2920 C   0  0  0  0  0  0  0  0  0  0  0  0
   17.3950    2.7170   -1.3290 O   0  0  0  0  0  0  0  0  0  0  0  0
   15.2790    3.2970   -0.9670 O   0  0  0  0  0  0  0  0  0  0  0  0
   11.6800    0.9180   -4.4300 C   0  0  0  0  0  0  0  0  0  0  0  0
    9.7410    3.0210   -9.1660 C   0  0  0  0  0  0  0  0  0  0  0  0
   10.3080    3.7000  -10.2440 C   0  0  0  0  0  0  0  0  0  0  0  0
   10.4450    5.0910  -10.2310 C   0  0  0  0  0  0  0  0  0  0  0  0
   11.0300    5.7410  -11.3320 C   0  0  0  0  0  0  0  0  0  0  0  0
   11.1910    7.1280  -11.3410 C   0  0  0  0  0  0  0  0  0  0  0  0
   11.7970    7.8370  -12.4940 C   0  0  0  0  0  0  0  0  0  0  0  0
   12.8220    7.3880  -13.0000 O   0  0  0  0  0  0  0  0  0  0  0  0
   11.1930    9.0750  -13.0500 C   0  0  0  0  0  0  0  0  0  0  0  0
   11.9830   10.1310  -13.5220 C   0  0  0  0  0  0  0  0  0  0  0  0
   11.3740   11.2830  -14.0250 C   0  0  0  0  0  0  0  0  0  0  0  0
    9.9840   11.3890  -14.0460 C   0  0  0  0  0  0  0  0  0  0  0  0
    9.1960   10.3480  -13.5560 C   0  0  0  0  0  0  0  0  0  0  0  0
    9.7990    9.1930  -13.0530 C   0  0  0  0  0  0  0  0  0  0  0  0
   10.7340    7.8780  -10.2610 C   0  0  0  0  0  0  0  0  0  0  0  0
   10.1510    7.2380   -9.1640 C   0  0  0  0  0  0  0  0  0  0  0  0
    9.9900    5.8330   -9.1110 C   0  0  0  0  0  0  0  0  0  0  0  0
  1  2  1  0
  2  3  1  0
  3  4  1  0
  4  5  2  0
  5  6  1  0
  6  7  1  0
  7  8  1  0
  8  9  1  0
  9 10  1  0
 10 11  1  0
 11 12  2  0
 12 13  1  0
 13 14  2  0
 14 15  1  0
 15 16  1  0
 16 17  2  0
 17 18  1  0
 18 19  1  0
 19 20  1  0
 20 21  2  0
 20 22  1  0
 15 23  2  0
  5 24  1  0
 24 25  2  0
 25 26  1  0
 26 27  2  0
 27 28  1  0
 28 29  1  0
 29 30  2  0
 29 31  1  0
 31 32  2  0
 32 33  1  0
 33 34  2  0
 34 35  1  0
 35 36  2  0
 28 37  2  0
 37 38  1  0
 38 39  2  0
 39  4  1  0
 23 11  1  0
 39 26  1  0
 18 14  1  0
 36 31  1  0
M  END
$$$$
