EH120_102
     RDKit          3D

 42 45  0  0  0  0  0  0  0  0999 V2000
    1.4467   -3.0784    0.3150 Cl  0  0  0  0  0  0  0  0  0  0  0  0
    2.0814   -1.6739   -0.4733 C   0  0  0  0  0  0  0  0  0  0  0  0
    3.3050   -1.8770   -1.1333 C   0  0  0  0  0  0  0  0  0  0  0  0
    3.9641   -0.8238   -1.7567 C   0  0  0  0  0  0  0  0  0  0  0  0
    3.4145    0.4468   -1.7034 C   0  0  0  0  0  0  0  0  0  0  0  0
    2.1957    0.6565   -1.0500 C   0  0  0  0  0  0  0  0  0  0  0  0
    1.4604   -0.4001   -0.4529 C   0  0  0  0  0  0  0  0  0  0  0  0
    0.1023   -0.1011    0.3025 C   0  0  0  0  0  0  0  0  0  0  0  0
   -1.0866   -1.0638   -0.0779 C   0  0  0  0  0  0  0  0  0  0  0  0
   -2.2638   -1.1033    0.7045 C   0  0  0  0  0  0  0  0  0  0  0  0
   -3.3574   -1.8956    0.3446 C   0  0  0  0  0  0  0  0  0  0  0  0
   -3.3212   -2.6422   -0.8270 C   0  0  0  0  0  0  0  0  0  0  0  0
   -2.2022   -2.5788   -1.6496 C   0  0  0  0  0  0  0  0  0  0  0  0
   -1.1080   -1.7851   -1.2907 C   0  0  0  0  0  0  0  0  0  0  0  0
   -0.5018    1.3319   -0.0329 C   0  0  0  0  0  0  0  0  0  0  0  0
   -0.9363    2.2383    0.9559 C   0  0  0  0  0  0  0  0  0  0  0  0
   -1.5115    3.4671    0.6145 C   0  0  0  0  0  0  0  0  0  0  0  0
   -1.6959    3.8105   -0.7206 C   0  0  0  0  0  0  0  0  0  0  0  0
   -1.3216    2.9194   -1.7193 C   0  0  0  0  0  0  0  0  0  0  0  0
   -0.7458    1.6923   -1.3809 C   0  0  0  0  0  0  0  0  0  0  0  0
    0.4853   -0.1748    1.7534 N   0  0  0  0  0  0  0  0  0  0  0  0
    1.3982    0.6550    2.3858 C   0  0  0  0  0  0  0  0  0  0  0  0
    1.4755    0.2119    3.6823 C   0  0  0  0  0  0  0  0  0  0  0  0
    0.6836   -0.8843    3.8618 N   0  0  0  0  0  0  0  0  0  0  0  0
    0.1468   -1.1243    2.6857 C   0  0  0  0  0  0  0  0  0  0  0  0
    3.7611   -2.8652   -1.1479 H   0  0  0  0  0  0  0  0  0  0  0  0
    4.9142   -0.9918   -2.2570 H   0  0  0  0  0  0  0  0  0  0  0  0
    3.9384    1.2860   -2.1561 H   0  0  0  0  0  0  0  0  0  0  0  0
    1.8484    1.6871   -1.0010 H   0  0  0  0  0  0  0  0  0  0  0  0
   -2.3531   -0.4999    1.6072 H   0  0  0  0  0  0  0  0  0  0  0  0
   -4.2421   -1.9174    0.9762 H   0  0  0  0  0  0  0  0  0  0  0  0
   -4.1717   -3.2573   -1.1084 H   0  0  0  0  0  0  0  0  0  0  0  0
   -2.1815   -3.1408   -2.5802 H   0  0  0  0  0  0  0  0  0  0  0  0
   -0.2756   -1.7409   -1.9892 H   0  0  0  0  0  0  0  0  0  0  0  0
   -0.8594    2.0080    2.0163 H   0  0  0  0  0  0  0  0  0  0  0  0
   -1.8295    4.1506    1.3985 H   0  0  0  0  0  0  0  0  0  0  0  0
   -2.1496    4.7632   -0.9808 H   0  0  0  0  0  0  0  0  0  0  0  0
   -1.4883    3.1716   -2.7635 H   0  0  0  0  0  0  0  0  0  0  0  0
   -0.4906    1.0094   -2.1900 H   0  0  0  0  0  0  0  0  0  0  0  0
    1.8866    1.4736    1.8754 H   0  0  0  0  0  0  0  0  0  0  0  0
    2.0683    0.6189    4.4910 H   0  0  0  0  0  0  0  0  0  0  0  0
   -0.4830   -1.9783    2.4720 H   0  0  0  0  0  0  0  0  0  0  0  0
  1  2  1  0
  2  3  2  0
  3  4  1  0
  4  5  2  0
  5  6  1  0
  6  7  2  0
  7  8  1  0
  8  9  1  0
  9 10  2  0
 10 11  1  0
 11 12  2  0
 12 13  1  0
 13 14  2  0
  8 15  1  0
 15 16  2  0
 16 17  1  0
 17 18  2  0
 18 19  1  0
 19 20  2  0
  8 21  1  0
 21 22  1  0
 22 23  2  0
 23 24  1  0
 24 25  2  0
  7  2  1  0
 14  9  1  0
 20 15  1  0
 25 21  1  0
  3 26  1  0
  4 27  1  0
  5 28  1  0
  6 29  1  0
 10 30  1  0
 11 31  1  0
 12 32  1  0
 13 33  1  0
 14 34  1  0
 16 35  1  0
 17 36  1  0
 18 37  1  0
 19 38  1  0
 20 39  1  0
 22 40  1  0
 23 41  1  0
 25 42  1  0
M  END
$$$$
