EH120_082
     RDKit          3D

 65 68  0  0  0  0  0  0  0  0999 V2000
    8.3849    2.8618    1.5793 C   0  0  0  0  0  0  0  0  0  0  0  0
    6.9090    2.7961    1.3370 C   0  0  0  0  0  0  0  0  0  0  0  0
    6.3286    1.6040    0.9117 C   0  0  0  0  0  0  0  0  0  0  0  0
    4.9537    1.5655    0.6766 C   0  0  0  0  0  0  0  0  0  0  0  0
    4.1893    2.7139    0.8725 C   0  0  0  0  0  0  0  0  0  0  0  0
    2.8292    2.8273    0.6803 O   0  0  0  0  0  0  0  0  0  0  0  0
    2.1318    1.6676    0.4481 C   0  0  0  0  0  0  0  0  0  0  0  0
    1.7658    0.8715    1.5327 C   0  0  0  0  0  0  0  0  0  0  0  0
    1.1444   -0.3557    1.3014 C   0  0  0  0  0  0  0  0  0  0  0  0
    0.8744   -0.7904   -0.0041 C   0  0  0  0  0  0  0  0  0  0  0  0
    0.3619   -2.1062   -0.1710 N   0  0  0  0  0  0  0  0  0  0  0  0
   -0.0169   -2.6923   -1.3951 C   0  0  0  0  0  0  0  0  0  0  0  0
    0.8054   -3.6875   -1.7859 N   0  0  0  0  0  0  0  0  0  0  0  0
    0.5669   -4.2183   -2.9840 C   0  0  0  0  0  0  0  0  0  0  0  0
   -0.3918   -3.8370   -3.8300 N   0  0  0  0  0  0  0  0  0  0  0  0
   -1.2256   -2.8779   -3.4097 C   0  0  0  0  0  0  0  0  0  0  0  0
   -2.2238   -2.4806   -4.2971 C   0  0  0  0  0  0  0  0  0  0  0  0
   -3.1594   -1.4979   -3.9725 C   0  0  0  0  0  0  0  0  0  0  0  0
   -3.1214   -0.9203   -2.7145 C   0  0  0  0  0  0  0  0  0  0  0  0
   -2.1527   -1.3264   -1.7915 C   0  0  0  0  0  0  0  0  0  0  0  0
   -2.2747   -0.7303   -0.5610 O   0  0  0  0  0  0  0  0  0  0  0  0
   -2.6721   -1.6227    0.4916 C   0  0  2  0  0  0  0  0  0  0  0  0
   -4.0368   -2.2926    0.2705 C   0  0  0  0  0  0  0  0  0  0  0  0
   -2.5941   -0.9003    1.8573 C   0  0  0  0  0  0  0  0  0  0  0  0
   -1.9218   -1.4141    2.7643 O   0  0  0  0  0  0  0  0  0  0  0  0
   -3.2839    0.2974    2.0728 N   0  0  0  0  0  0  0  0  0  0  0  0
   -3.1425    0.9386    3.3753 C   0  0  0  0  0  0  0  0  0  0  0  0
   -4.3138    0.8578    1.1926 C   0  0  0  0  0  0  0  0  0  0  0  0
   -5.7385    0.5132    1.6507 C   0  0  0  0  0  0  0  0  0  0  0  0
   -6.6773    0.9481    0.6769 O   0  0  0  0  0  0  0  0  0  0  0  0
   -1.1363   -2.2676   -2.1461 C   0  0  0  0  0  0  0  0  0  0  0  0
    1.1880    0.0559   -1.0762 C   0  0  0  0  0  0  0  0  0  0  0  0
    1.7996    1.3014   -0.8629 C   0  0  0  0  0  0  0  0  0  0  0  0
    2.1537    2.1676   -2.0358 C   0  0  0  0  0  0  0  0  0  0  0  0
    4.8577    3.8612    1.2783 C   0  0  0  0  0  0  0  0  0  0  0  0
    6.1943    3.9308    1.5115 N   0  0  0  0  0  0  0  0  0  0  0  0
    8.7106    2.0088    2.1891 H   0  0  0  0  0  0  0  0  0  0  0  0
    8.6484    3.7832    2.1043 H   0  0  0  0  0  0  0  0  0  0  0  0
    8.9212    2.8433    0.6256 H   0  0  0  0  0  0  0  0  0  0  0  0
    6.9314    0.7136    0.7683 H   0  0  0  0  0  0  0  0  0  0  0  0
    4.5082    0.6345    0.3389 H   0  0  0  0  0  0  0  0  0  0  0  0
    1.9918    1.1833    2.5515 H   0  0  0  0  0  0  0  0  0  0  0  0
    0.8776   -0.9819    2.1517 H   0  0  0  0  0  0  0  0  0  0  0  0
    1.0819   -2.7381    0.1890 H   0  0  0  0  0  0  0  0  0  0  0  0
    1.2033   -5.0391   -3.2950 H   0  0  0  0  0  0  0  0  0  0  0  0
   -2.2686   -2.9475   -5.2802 H   0  0  0  0  0  0  0  0  0  0  0  0
   -3.9179   -1.1969   -4.6956 H   0  0  0  0  0  0  0  0  0  0  0  0
   -3.8573   -0.1686   -2.4424 H   0  0  0  0  0  0  0  0  0  0  0  0
   -1.9519   -2.4410    0.5717 H   0  0  0  0  0  0  0  0  0  0  0  0
   -4.3877   -2.7913    1.1780 H   0  0  0  0  0  0  0  0  0  0  0  0
   -3.9605   -3.0567   -0.5166 H   0  0  0  0  0  0  0  0  0  0  0  0
   -4.7982   -1.5828   -0.0520 H   0  0  0  0  0  0  0  0  0  0  0  0
   -3.9873    0.6405    4.0079 H   0  0  0  0  0  0  0  0  0  0  0  0
   -3.1295    2.0271    3.2504 H   0  0  0  0  0  0  0  0  0  0  0  0
   -2.2146    0.6441    3.8731 H   0  0  0  0  0  0  0  0  0  0  0  0
   -4.1979    1.9503    1.1618 H   0  0  0  0  0  0  0  0  0  0  0  0
   -4.1741    0.5282    0.1639 H   0  0  0  0  0  0  0  0  0  0  0  0
   -5.8645   -0.5651    1.7975 H   0  0  0  0  0  0  0  0  0  0  0  0
   -5.9693    1.0109    2.5950 H   0  0  0  0  0  0  0  0  0  0  0  0
   -7.5570    0.6862    1.0063 H   0  0  0  0  0  0  0  0  0  0  0  0
    0.9731   -0.2473   -2.1004 H   0  0  0  0  0  0  0  0  0  0  0  0
    3.2058    2.0344   -2.3059 H   0  0  0  0  0  0  0  0  0  0  0  0
    1.9737    3.2238   -1.8100 H   0  0  0  0  0  0  0  0  0  0  0  0
    1.5378    1.9182   -2.9091 H   0  0  0  0  0  0  0  0  0  0  0  0
    4.3164    4.7925    1.4388 H   0  0  0  0  0  0  0  0  0  0  0  0
  1  2  1  0
  2  3  2  0
  3  4  1  0
  4  5  2  0
  5  6  1  0
  6  7  1  0
  7  8  2  0
  8  9  1  0
  9 10  2  0
 10 11  1  0
 11 12  1  0
 12 13  2  0
 13 14  1  0
 14 15  2  0
 15 16  1  0
 16 17  2  0
 17 18  1  0
 18 19  2  0
 19 20  1  0
 20 21  1  0
 21 22  1  0
 22 23  1  0
 22 24  1  0
 24 25  2  0
 24 26  1  0
 26 27  1  0
 26 28  1  0
 28 29  1  0
 29 30  1  0
 20 31  2  0
 10 32  1  0
 32 33  2  0
 33 34  1  0
  5 35  1  0
 35 36  2  0
 36  2  1  0
 33  7  1  0
 31 12  1  0
 31 16  1  0
  1 37  1  0
  1 38  1  0
  1 39  1  0
  3 40  1  0
  4 41  1  0
  8 42  1  0
  9 43  1  0
 11 44  1  0
 14 45  1  0
 17 46  1  0
 18 47  1  0
 19 48  1  0
 22 49  1  1
 23 50  1  0
 23 51  1  0
 23 52  1  0
 27 53  1  0
 27 54  1  0
 27 55  1  0
 28 56  1  0
 28 57  1  0
 29 58  1  0
 29 59  1  0
 30 60  1  0
 32 61  1  0
 34 62  1  0
 34 63  1  0
 34 64  1  0
 35 65  1  0
M  END
$$$$
