EH120_059
     RDKit          3D

 42 45  0  0  0  0  0  0  0  0999 V2000
   -3.6591   -1.2928    1.4837 C   0  0  0  0  0  0  0  0  0  0  0  0
   -3.5476   -0.2079    0.4726 C   0  0  0  0  0  0  0  0  0  0  0  0
   -4.6271    0.5941    0.0011 C   0  0  0  0  0  0  0  0  0  0  0  0
   -4.1354    1.4947   -0.9258 C   0  0  0  0  0  0  0  0  0  0  0  0
   -4.7908    2.5106   -1.6950 C   0  0  0  0  0  0  0  0  0  0  0  0
   -4.2708    3.2693   -2.4986 O   0  0  0  0  0  0  0  0  0  0  0  0
   -6.1119    2.5666   -1.4361 O   0  0  0  0  0  0  0  0  0  0  0  0
   -2.7843    1.2534   -1.0247 N   0  0  0  0  0  0  0  0  0  0  0  0
   -2.4136    0.2223   -0.1963 C   0  0  0  0  0  0  0  0  0  0  0  0
   -1.0457   -0.1330   -0.1674 C   0  0  0  0  0  0  0  0  0  0  0  0
   -0.5722   -1.3411   -0.5098 C   0  0  0  0  0  0  0  0  0  0  0  0
   -1.3420   -2.5071   -1.0870 C   0  0  0  0  0  0  0  0  0  0  0  0
   -2.5325   -2.6178   -1.2948 O   0  0  0  0  0  0  0  0  0  0  0  0
   -0.3818   -3.4580   -1.3672 N   0  0  0  0  0  0  0  0  0  0  0  0
    0.8878   -3.0270   -1.0217 C   0  0  0  0  0  0  0  0  0  0  0  0
    1.9770   -3.7703   -1.1968 N   0  0  0  0  0  0  0  0  0  0  0  0
    3.0935   -3.1666   -0.7782 C   0  0  0  0  0  0  0  0  0  0  0  0
    3.1760   -1.9457   -0.2105 N   0  0  0  0  0  0  0  0  0  0  0  0
    2.0359   -1.2401   -0.0380 C   0  0  0  0  0  0  0  0  0  0  0  0
    2.0727    0.0137    0.6160 N   0  0  0  0  0  0  0  0  0  0  0  0
    3.1975    0.8251    0.8905 C   0  0  0  0  0  0  0  0  0  0  0  0
    4.3386    0.8355    0.0748 C   0  0  0  0  0  0  0  0  0  0  0  0
    5.4057    1.7006    0.3358 C   0  0  0  0  0  0  0  0  0  0  0  0
    5.3287    2.5848    1.4038 C   0  0  0  0  0  0  0  0  0  0  0  0
    6.3606    3.4087    1.6371 F   0  0  0  0  0  0  0  0  0  0  0  0
    4.1924    2.6194    2.2046 C   0  0  0  0  0  0  0  0  0  0  0  0
    4.0758    3.7280    3.5173 Cl  0  0  0  0  0  0  0  0  0  0  0  0
    3.1265    1.7536    1.9424 C   0  0  0  0  0  0  0  0  0  0  0  0
    0.8372   -1.7583   -0.4727 C   0  0  0  0  0  0  0  0  0  0  0  0
   -4.3071   -0.9812    2.3096 H   0  0  0  0  0  0  0  0  0  0  0  0
   -4.0897   -2.1915    1.0314 H   0  0  0  0  0  0  0  0  0  0  0  0
   -2.6838   -1.5526    1.9066 H   0  0  0  0  0  0  0  0  0  0  0  0
   -5.6641    0.5190    0.3062 H   0  0  0  0  0  0  0  0  0  0  0  0
   -6.4289    3.2824   -2.0219 H   0  0  0  0  0  0  0  0  0  0  0  0
   -2.1710    1.7617   -1.6493 H   0  0  0  0  0  0  0  0  0  0  0  0
   -0.3654    0.6549    0.1410 H   0  0  0  0  0  0  0  0  0  0  0  0
   -0.5769   -4.3558   -1.7792 H   0  0  0  0  0  0  0  0  0  0  0  0
    4.0249   -3.7102   -0.9001 H   0  0  0  0  0  0  0  0  0  0  0  0
    1.4299   -0.0095    1.4037 H   0  0  0  0  0  0  0  0  0  0  0  0
    4.4113    0.1708   -0.7828 H   0  0  0  0  0  0  0  0  0  0  0  0
    6.2898    1.6922   -0.2941 H   0  0  0  0  0  0  0  0  0  0  0  0
    2.2398    1.8052    2.5690 H   0  0  0  0  0  0  0  0  0  0  0  0
  1  2  1  0
  2  3  1  0
  3  4  2  0
  4  5  1  0
  5  6  2  0
  5  7  1  0
  4  8  1  0
  8  9  1  0
  9 10  1  0
 10 11  2  0
 11 12  1  0
 12 13  2  0
 12 14  1  0
 14 15  1  0
 15 16  2  0
 16 17  1  0
 17 18  2  0
 18 19  1  0
 19 20  1  0
 20 21  1  0
 21 22  2  0
 22 23  1  0
 23 24  2  0
 24 25  1  0
 24 26  1  0
 26 27  1  0
 26 28  2  0
 19 29  2  0
  9  2  2  0
 29 11  1  0
 29 15  1  0
 28 21  1  0
  1 30  1  0
  1 31  1  0
  1 32  1  0
  3 33  1  0
  7 34  1  0
  8 35  1  0
 10 36  1  0
 14 37  1  0
 17 38  1  0
 20 39  1  0
 22 40  1  0
 23 41  1  0
 28 42  1  0
M  END
$$$$
