EH120_085
     RDKit          3D

 72 78  0  0  0  0  0  0  0  0999 V2000
   -9.2097   -2.1723   -0.9866 C   0  0  0  0  0  0  0  0  0  0  0  0
   -8.0582   -1.4650   -0.4319 N   0  0  0  0  0  0  0  0  0  0  0  0
   -7.2864   -0.7977   -1.4971 C   0  0  0  0  0  0  0  0  0  0  0  0
   -6.0122   -0.1003   -0.9565 C   0  0  0  0  0  0  0  0  0  0  0  0
   -5.1342   -1.0468   -0.2461 N   0  0  0  0  0  0  0  0  0  0  0  0
   -3.8434   -0.5034    0.2159 C   0  0  1  0  0  0  0  0  0  0  0  0
   -2.9359   -0.0657   -0.9601 C   0  0  0  0  0  0  0  0  0  0  0  0
   -2.7805    1.4501   -1.0712 C   0  0  0  0  0  0  0  0  0  0  0  0
   -2.2296    2.0852    0.2235 C   0  0  2  0  0  0  0  0  0  0  0  0
   -0.7874    2.3114    0.1743 N   0  0  0  0  0  0  0  0  0  0  0  0
    0.0447    1.3247   -0.2280 N   0  0  0  0  0  0  0  0  0  0  0  0
    1.2650    1.8827   -0.1628 C   0  0  0  0  0  0  0  0  0  0  0  0
    2.4447    1.1288   -0.5480 C   0  0  0  0  0  0  0  0  0  0  0  0
    2.9317    1.2071   -1.8517 C   0  0  0  0  0  0  0  0  0  0  0  0
    4.0739    0.4845   -2.2143 C   0  0  0  0  0  0  0  0  0  0  0  0
    4.7547   -0.3322   -1.2933 C   0  0  0  0  0  0  0  0  0  0  0  0
    5.9114   -0.9962   -1.7371 N   0  0  0  0  0  0  0  0  0  0  0  0
    6.8595   -1.6812   -1.0753 C   0  0  0  0  0  0  0  0  0  0  0  0
    7.8374   -2.3701   -1.6292 N   0  0  0  0  0  0  0  0  0  0  0  0
    8.5532   -2.8477   -0.5626 C   0  0  0  0  0  0  0  0  0  0  0  0
    9.7027   -3.6486   -0.5129 C   0  0  0  0  0  0  0  0  0  0  0  0
   10.2295   -3.9789    0.7457 C   0  0  0  0  0  0  0  0  0  0  0  0
    9.6206   -3.5263    1.9236 C   0  0  0  0  0  0  0  0  0  0  0  0
    8.4697   -2.7293    1.8813 C   0  0  0  0  0  0  0  0  0  0  0  0
    7.7196   -2.1767    3.3177 Cl  0  0  0  0  0  0  0  0  0  0  0  0
    7.9779   -2.4169    0.6196 C   0  0  0  0  0  0  0  0  0  0  0  0
    6.8898   -1.6598    0.2919 O   0  0  0  0  0  0  0  0  0  0  0  0
    4.2581   -0.3826    0.0149 C   0  0  0  0  0  0  0  0  0  0  0  0
    3.1104    0.3320    0.3851 C   0  0  0  0  0  0  0  0  0  0  0  0
    1.2095    3.2223    0.3102 C   0  0  0  0  0  0  0  0  0  0  0  0
    2.0918    4.2739    0.5781 C   0  0  0  0  0  0  0  0  0  0  0  0
    3.4620    4.2134    0.3849 N   0  0  0  0  0  0  0  0  0  0  0  0
    1.5914    5.4275    1.0722 N   0  0  0  0  0  0  0  0  0  0  0  0
    0.2606    5.5220    1.2607 C   0  0  0  0  0  0  0  0  0  0  0  0
   -0.6807    4.5929    1.0168 N   0  0  0  0  0  0  0  0  0  0  0  0
   -0.1341    3.4597    0.5398 C   0  0  0  0  0  0  0  0  0  0  0  0
   -2.6086    1.3008    1.4904 C   0  0  0  0  0  0  0  0  0  0  0  0
   -3.9395    0.5746    1.3185 C   0  0  0  0  0  0  0  0  0  0  0  0
   -5.8996   -1.7026    0.8335 C   0  0  0  0  0  0  0  0  0  0  0  0
   -7.1761   -2.3959    0.3002 C   0  0  0  0  0  0  0  0  0  0  0  0
   -8.9157   -2.9449   -1.7069 H   0  0  0  0  0  0  0  0  0  0  0  0
   -9.8873   -1.4717   -1.4852 H   0  0  0  0  0  0  0  0  0  0  0  0
   -9.7835   -2.6516   -0.1854 H   0  0  0  0  0  0  0  0  0  0  0  0
   -7.9158   -0.0387   -1.9797 H   0  0  0  0  0  0  0  0  0  0  0  0
   -6.9931   -1.5194   -2.2724 H   0  0  0  0  0  0  0  0  0  0  0  0
   -5.4943    0.3355   -1.8164 H   0  0  0  0  0  0  0  0  0  0  0  0
   -6.3164    0.7253   -0.3016 H   0  0  0  0  0  0  0  0  0  0  0  0
   -3.3110   -1.3569    0.6622 H   0  0  0  0  0  0  0  0  0  0  0  0
   -3.2955   -0.4733   -1.9130 H   0  0  0  0  0  0  0  0  0  0  0  0
   -1.9441   -0.5139   -0.8207 H   0  0  0  0  0  0  0  0  0  0  0  0
   -2.1510    1.6978   -1.9347 H   0  0  0  0  0  0  0  0  0  0  0  0
   -3.7650    1.8872   -1.2825 H   0  0  0  0  0  0  0  0  0  0  0  0
   -2.6839    3.0848    0.2872 H   0  0  0  0  0  0  0  0  0  0  0  0
    2.4274    1.8254   -2.5904 H   0  0  0  0  0  0  0  0  0  0  0  0
    4.4282    0.5680   -3.2406 H   0  0  0  0  0  0  0  0  0  0  0  0
    6.0087   -1.0288   -2.7440 H   0  0  0  0  0  0  0  0  0  0  0  0
   10.1713   -3.9957   -1.4279 H   0  0  0  0  0  0  0  0  0  0  0  0
   11.1259   -4.5936    0.8036 H   0  0  0  0  0  0  0  0  0  0  0  0
   10.0521   -3.8006    2.8849 H   0  0  0  0  0  0  0  0  0  0  0  0
    4.7297   -0.9978    0.7753 H   0  0  0  0  0  0  0  0  0  0  0  0
    2.7397    0.2537    1.4060 H   0  0  0  0  0  0  0  0  0  0  0  0
    3.8773    3.2931    0.4606 H   0  0  0  0  0  0  0  0  0  0  0  0
    3.9370    4.9621    0.8744 H   0  0  0  0  0  0  0  0  0  0  0  0
   -0.0940    6.4683    1.6583 H   0  0  0  0  0  0  0  0  0  0  0  0
   -2.6685    1.9925    2.3402 H   0  0  0  0  0  0  0  0  0  0  0  0
   -1.8339    0.5659    1.7466 H   0  0  0  0  0  0  0  0  0  0  0  0
   -4.2165    0.1069    2.2702 H   0  0  0  0  0  0  0  0  0  0  0  0
   -4.7133    1.3164    1.0943 H   0  0  0  0  0  0  0  0  0  0  0  0
   -6.1917   -0.9751    1.6034 H   0  0  0  0  0  0  0  0  0  0  0  0
   -5.2790   -2.4655    1.3219 H   0  0  0  0  0  0  0  0  0  0  0  0
   -6.8782   -3.2378   -0.3429 H   0  0  0  0  0  0  0  0  0  0  0  0
   -7.7196   -2.8149    1.1565 H   0  0  0  0  0  0  0  0  0  0  0  0
  1  2  1  0
  2  3  1  0
  3  4  1  0
  4  5  1  0
  5  6  1  0
  6  7  1  0
  7  8  1  0
  8  9  1  0
  9 10  1  0
 10 11  1  0
 11 12  2  0
 12 13  1  0
 13 14  2  0
 14 15  1  0
 15 16  2  0
 16 17  1  0
 17 18  1  0
 18 19  2  0
 19 20  1  0
 20 21  2  0
 21 22  1  0
 22 23  2  0
 23 24  1  0
 24 25  1  0
 24 26  2  0
 26 27  1  0
 16 28  1  0
 28 29  2  0
 12 30  1  0
 30 31  2  0
 31 32  1  0
 31 33  1  0
 33 34  2  0
 34 35  1  0
 35 36  2  0
  9 37  1  0
 37 38  1  0
  5 39  1  0
 39 40  1  0
 40  2  1  0
 38  6  1  0
 36 10  1  0
 29 13  1  0
 36 30  1  0
 27 18  1  0
 26 20  1  0
  1 41  1  0
  1 42  1  0
  1 43  1  0
  3 44  1  0
  3 45  1  0
  4 46  1  0
  4 47  1  0
  6 48  1  1
  7 49  1  0
  7 50  1  0
  8 51  1  0
  8 52  1  0
  9 53  1  1
 14 54  1  0
 15 55  1  0
 17 56  1  0
 21 57  1  0
 22 58  1  0
 23 59  1  0
 28 60  1  0
 29 61  1  0
 32 62  1  0
 32 63  1  0
 34 64  1  0
 37 65  1  0
 37 66  1  0
 38 67  1  0
 38 68  1  0
 39 69  1  0
 39 70  1  0
 40 71  1  0
 40 72  1  0
M  END
$$$$
