EH40_16
     RDKit          3D

 47 51  0  0  0  0  0  0  0  0999 V2000
    5.4180    5.5265    0.9443 Cl  0  0  0  0  0  0  0  0  0  0  0  0
    4.2909    4.3325    0.4090 C   0  0  0  0  0  0  0  0  0  0  0  0
    4.5661    2.9963    0.7078 C   0  0  0  0  0  0  0  0  0  0  0  0
    3.6870    1.9909    0.2970 C   0  0  0  0  0  0  0  0  0  0  0  0
    2.5250    2.3138   -0.4148 C   0  0  0  0  0  0  0  0  0  0  0  0
    1.6159    1.2217   -0.8341 C   0  0  0  0  0  0  0  0  0  0  0  0
    1.9009   -0.0336   -0.6699 N   0  0  0  0  0  0  0  0  0  0  0  0
    0.8379   -0.7521   -1.1387 N   0  0  0  0  0  0  0  0  0  0  0  0
    0.9135   -2.1376   -1.2780 C   0  0  0  0  0  0  0  0  0  0  0  0
   -0.1519   -2.9070   -1.7720 C   0  0  0  0  0  0  0  0  0  0  0  0
   -0.0583   -4.2989   -1.9006 C   0  0  0  0  0  0  0  0  0  0  0  0
    1.1109   -4.9576   -1.5375 C   0  0  0  0  0  0  0  0  0  0  0  0
    2.1841   -4.2242   -1.0458 C   0  0  0  0  0  0  0  0  0  0  0  0
    2.0807   -2.8343   -0.9188 C   0  0  0  0  0  0  0  0  0  0  0  0
   -0.2975    0.0869   -1.5276 C   0  0  0  0  0  0  0  0  0  0  0  0
   -1.4807   -0.0018   -0.5743 C   0  0  0  0  0  0  0  0  0  0  0  0
   -2.7767    0.2131   -1.0650 C   0  0  0  0  0  0  0  0  0  0  0  0
   -3.8805    0.1673   -0.2096 C   0  0  0  0  0  0  0  0  0  0  0  0
   -3.7177   -0.0891    1.1595 C   0  0  0  0  0  0  0  0  0  0  0  0
   -4.8169   -0.1387    2.0324 C   0  0  0  0  0  0  0  0  0  0  0  0
   -4.6366   -0.3956    3.3924 C   0  0  0  0  0  0  0  0  0  0  0  0
   -3.3565   -0.6069    3.8965 C   0  0  0  0  0  0  0  0  0  0  0  0
   -2.2544   -0.5614    3.0413 C   0  0  0  0  0  0  0  0  0  0  0  0
   -2.4187   -0.3020    1.6712 C   0  0  0  0  0  0  0  0  0  0  0  0
   -1.3182   -0.2520    0.7992 C   0  0  0  0  0  0  0  0  0  0  0  0
    0.3033    1.4945   -1.5156 C   0  0  0  0  0  0  0  0  0  0  0  0
    2.2491    3.6515   -0.7155 C   0  0  0  0  0  0  0  0  0  0  0  0
    3.1309    4.6589   -0.3034 C   0  0  0  0  0  0  0  0  0  0  0  0
    2.7256    6.2896   -0.7111 Cl  0  0  0  0  0  0  0  0  0  0  0  0
    5.4637    2.7274    1.2599 H   0  0  0  0  0  0  0  0  0  0  0  0
    3.9159    0.9531    0.5364 H   0  0  0  0  0  0  0  0  0  0  0  0
   -1.0892   -2.4409   -2.0590 H   0  0  0  0  0  0  0  0  0  0  0  0
   -0.9053   -4.8645   -2.2793 H   0  0  0  0  0  0  0  0  0  0  0  0
    1.1844   -6.0369   -1.6335 H   0  0  0  0  0  0  0  0  0  0  0  0
    3.1031   -4.7254   -0.7564 H   0  0  0  0  0  0  0  0  0  0  0  0
    2.9343   -2.2843   -0.5286 H   0  0  0  0  0  0  0  0  0  0  0  0
   -0.6227   -0.1597   -2.5462 H   0  0  0  0  0  0  0  0  0  0  0  0
   -2.9408    0.4168   -2.1210 H   0  0  0  0  0  0  0  0  0  0  0  0
   -4.8735    0.3326   -0.6220 H   0  0  0  0  0  0  0  0  0  0  0  0
   -5.8251    0.0212    1.6569 H   0  0  0  0  0  0  0  0  0  0  0  0
   -5.4956   -0.4323    4.0572 H   0  0  0  0  0  0  0  0  0  0  0  0
   -3.2139   -0.8096    4.9548 H   0  0  0  0  0  0  0  0  0  0  0  0
   -1.2614   -0.7327    3.4518 H   0  0  0  0  0  0  0  0  0  0  0  0
   -0.3169   -0.4227    1.1945 H   0  0  0  0  0  0  0  0  0  0  0  0
    0.5033    1.8442   -2.5342 H   0  0  0  0  0  0  0  0  0  0  0  0
   -0.2945    2.2344   -0.9764 H   0  0  0  0  0  0  0  0  0  0  0  0
    1.3593    3.9284   -1.2730 H   0  0  0  0  0  0  0  0  0  0  0  0
  1  2  1  0
  2  3  2  0
  3  4  1  0
  4  5  2  0
  5  6  1  0
  6  7  2  0
  7  8  1  0
  8  9  1  0
  9 10  2  0
 10 11  1  0
 11 12  2  0
 12 13  1  0
 13 14  2  0
  8 15  1  0
 15 16  1  0
 16 17  2  0
 17 18  1  0
 18 19  2  0
 19 20  1  0
 20 21  2  0
 21 22  1  0
 22 23  2  0
 23 24  1  0
 24 25  2  0
 15 26  1  0
  5 27  1  0
 27 28  2  0
 28 29  1  0
 28  2  1  0
 26  6  1  0
 14  9  1  0
 25 16  1  0
 24 19  1  0
  3 30  1  0
  4 31  1  0
 10 32  1  0
 11 33  1  0
 12 34  1  0
 13 35  1  0
 14 36  1  0
 15 37  1  0
 17 38  1  0
 18 39  1  0
 20 40  1  0
 21 41  1  0
 22 42  1  0
 23 43  1  0
 25 44  1  0
 26 45  1  0
 26 46  1  0
 27 47  1  0
M  END
$$$$
