GIXMGPYDKTUODZ-SFHVURJKSA-N
     RDKit          3D

 30 33  0  0  0  0  0  0  0  0999 V2000
    9.6520    2.8800  -10.6300 C   0  0  0  0  0  0  0  0  0  0  0  0
   10.5940    3.7550  -11.2380 O   0  0  0  0  0  0  0  0  0  0  0  0
   10.5550    5.0680  -10.8560 C   0  0  0  0  0  0  0  0  0  0  0  0
   10.5080    6.1700  -11.7050 C   0  0  0  0  0  0  0  0  0  0  0  0
   10.4540    7.4700  -11.1780 C   0  0  0  0  0  0  0  0  0  0  0  0
   10.4410    7.6960   -9.7920 C   0  0  0  0  0  0  0  0  0  0  0  0
   10.3650    9.0420   -9.1800 C   0  0  0  0  0  0  0  0  0  0  0  0
   10.2770    9.2490   -7.8790 N   0  0  0  0  0  0  0  0  0  0  0  0
   10.1940   10.6030   -7.5920 C   0  0  0  0  0  0  0  0  0  0  0  0
   10.0970   11.0020   -6.1500 C   0  0  0  0  0  0  0  0  0  0  0  0
    8.6540   11.0040   -5.6440 C   0  0  0  0  0  0  0  0  0  0  0  0
    7.9340    9.9600   -6.3090 O   0  0  0  0  0  0  0  0  0  0  0  0
    6.8390    9.4550   -5.6580 C   0  0  0  0  0  0  0  0  0  0  0  0
    6.3750   10.2530   -4.5970 C   0  0  0  0  0  0  0  0  0  0  0  0
    5.2680    9.8720   -3.8340 C   0  0  0  0  0  0  0  0  0  0  0  0
    4.6380    8.6790   -4.1450 C   0  0  0  0  0  0  0  0  0  0  0  0
    5.0990    7.8780   -5.1940 C   0  0  0  0  0  0  0  0  0  0  0  0
    6.2010    8.2470   -5.9540 C   0  0  0  0  0  0  0  0  0  0  0  0
    4.2880    6.6260   -5.3070 C   0  0  0  0  0  0  0  0  0  0  0  0
    3.0230    7.0200   -4.5290 C   0  0  0  0  0  0  0  0  0  0  0  0
    3.4500    8.0550   -3.4600 C   0  0  1  0  0  0  0  0  0  0  0  0
    3.8460    7.4180   -2.1270 C   0  0  0  0  0  0  0  0  0  0  0  0
    3.6100    8.3580   -0.9750 C   0  0  0  0  0  0  0  0  0  0  0  0
    2.5390    8.7320   -0.5270 O   0  0  0  0  0  0  0  0  0  0  0  0
    4.7690    8.7840   -0.4290 O   0  0  0  0  0  0  0  0  0  0  0  0
   10.2140   11.4310   -8.7000 C   0  0  0  0  0  0  0  0  0  0  0  0
   10.1480   12.9160   -8.7870 C   0  0  0  0  0  0  0  0  0  0  0  0
   10.3700   10.4860  -10.1200 S   0  0  0  0  0  0  0  0  0  0  0  0
   10.4980    6.5730   -8.9530 C   0  0  0  0  0  0  0  0  0  0  0  0
   10.5510    5.2770   -9.4770 C   0  0  0  0  0  0  0  0  0  0  0  0
  1  2  1  0
  2  3  1  0
  3  4  2  0
  4  5  1  0
  5  6  2  0
  6  7  1  0
  7  8  2  0
  8  9  1  0
  9 10  1  0
 10 11  1  0
 11 12  1  0
 12 13  1  0
 13 14  2  0
 14 15  1  0
 15 16  2  0
 16 17  1  0
 17 18  2  0
 17 19  1  0
 19 20  1  0
 20 21  1  0
 21 22  1  1
 22 23  1  0
 23 24  2  0
 23 25  1  0
  9 26  2  0
 26 27  1  0
 26 28  1  0
  6 29  1  0
 29 30  2  0
 30  3  1  0
 28  7  1  0
 18 13  1  0
 21 16  1  0
M  END
$$$$
