UKPORPWVWHZWTG-ZWKOTPCHSA-N
     RDKit          3D

 38 42  0  0  0  0  0  0  0  0999 V2000
   -5.7960   17.9230   17.3620 C   0  0  0  0  0  0  0  0  0  0  0  0
   -6.3970   17.1370   18.3830 O   0  0  0  0  0  0  0  0  0  0  0  0
   -6.7460   17.8360   19.4890 C   0  0  0  0  0  0  0  0  0  0  0  0
   -6.6190   19.1640   19.5440 N   0  0  0  0  0  0  0  0  0  0  0  0
   -7.0740   19.4580   20.7800 N   0  0  0  0  0  0  0  0  0  0  0  0
   -7.0890   20.8310   21.2200 C   0  0  0  0  0  0  0  0  0  0  0  0
   -7.4830   18.3670   21.4930 C   0  0  0  0  0  0  0  0  0  0  0  0
   -7.2770   17.2840   20.6770 C   0  0  0  0  0  0  0  0  0  0  0  0
   -7.5070   15.9770   20.9130 N   0  0  0  0  0  0  0  0  0  0  0  0
   -8.4200   15.0740   20.3770 C   0  0  0  0  0  0  0  0  0  0  0  0
   -8.0280   13.9400   19.7800 N   0  0  0  0  0  0  0  0  0  0  0  0
   -8.9930   13.1150   19.3340 C   0  0  0  0  0  0  0  0  0  0  0  0
  -10.3440   13.3620   19.4520 C   0  0  0  0  0  0  0  0  0  0  0  0
  -11.3450   12.3790   18.9450 C   0  0  0  0  0  0  0  0  0  0  0  0
  -10.6470   14.5720   20.0470 C   0  0  0  0  0  0  0  0  0  0  0  0
  -12.0110   15.0500   20.2380 C   0  0  0  0  0  0  0  0  0  0  0  0
  -12.9910   14.3490   20.9080 C   0  0  0  0  0  0  0  0  0  0  0  0
  -14.1450   15.0800   20.8550 N   0  0  0  0  0  0  0  0  0  0  0  0
  -13.9650   16.2430   20.1380 C   0  0  0  0  0  0  0  0  0  0  0  0
  -14.8610   17.2740   19.8070 C   0  0  0  0  0  0  0  0  0  0  0  0
  -16.2150   17.3610   20.1680 N   0  0  0  0  0  0  0  0  0  0  0  0
  -16.8150   18.0290   21.2190 C   0  0  0  0  0  0  0  0  0  0  0  0
  -16.2530   18.6990   22.0830 O   0  0  0  0  0  0  0  0  0  0  0  0
  -18.3620   17.9190   21.1680 C   0  0  1  0  0  0  0  0  0  0  0  0
  -18.7860   17.2020   22.4570 C   0  0  0  0  0  0  0  0  0  0  0  0
  -18.9570   19.2840   21.0090 N   0  0  0  0  0  0  0  0  0  0  0  0
  -18.4940   19.8860   19.7300 C   0  0  0  0  0  0  0  0  0  0  0  0
  -19.0920   21.2850   19.4890 C   0  0  0  0  0  0  0  0  0  0  0  0
  -20.5690   21.2720   19.4700 N   0  0  0  0  0  0  0  0  0  0  0  0
  -21.0640   22.6350   19.2620 C   0  0  0  0  0  0  0  0  0  0  0  0
  -21.0750   20.6640   20.7240 C   0  0  1  0  0  0  0  0  0  0  0  0
  -22.6010   20.5000   20.7110 C   0  0  0  0  0  0  0  0  0  0  0  0
  -20.4370   19.2600   20.9820 C   0  0  0  0  0  0  0  0  0  0  0  0
  -14.3470   18.3300   19.0310 C   0  0  0  0  0  0  0  0  0  0  0  0
  -13.0190   18.3580   18.6110 C   0  0  0  0  0  0  0  0  0  0  0  0
  -12.1520   17.3210   18.9540 C   0  0  0  0  0  0  0  0  0  0  0  0
  -12.6250   16.2420   19.7290 C   0  0  0  0  0  0  0  0  0  0  0  0
   -9.7050   15.4160   20.5250 N   0  0  0  0  0  0  0  0  0  0  0  0
  1  2  1  0
  2  3  1  0
  3  4  2  0
  4  5  1  0
  5  6  1  0
  5  7  1  0
  7  8  2  0
  8  9  1  0
  9 10  1  0
 10 11  2  0
 11 12  1  0
 12 13  2  0
 13 14  1  0
 13 15  1  0
 15 16  1  0
 16 17  2  0
 17 18  1  0
 18 19  1  0
 19 20  2  0
 20 21  1  0
 21 22  1  0
 22 23  2  0
 22 24  1  0
 24 25  1  1
 24 26  1  0
 26 27  1  0
 27 28  1  0
 28 29  1  0
 29 30  1  0
 29 31  1  0
 31 32  1  6
 31 33  1  0
 20 34  1  0
 34 35  2  0
 35 36  1  0
 36 37  2  0
 15 38  2  0
  8  3  1  0
 38 10  1  0
 37 16  1  0
 37 19  1  0
 33 26  1  0
M  END
$$$$
