RBDSMNWWGHWDMP-CQSZACIVSA-N
     RDKit          3D

 21 24  0  0  0  0  0  0  0  0999 V2000
    5.7460  -24.4220   18.0300 N   0  0  0  0  0  0  0  0  0  0  0  0
    5.4420  -23.4160   18.5120 C   0  0  0  0  0  0  0  0  0  0  0  0
    5.0780  -22.2550   19.0620 N   0  0  0  0  0  0  0  0  0  0  0  0
    4.2770  -22.1550   20.2980 C   0  0  2  0  0  0  0  0  0  0  0  0
    4.5080  -20.7970   20.9910 C   0  0  0  0  0  0  0  0  0  0  0  0
    5.6830  -20.9850   21.9630 C   0  0  0  0  0  0  0  0  0  0  0  0
    5.5650  -22.4390   22.2930 C   0  0  0  0  0  0  0  0  0  0  0  0
    6.1510  -23.1260   23.3360 C   0  0  0  0  0  0  0  0  0  0  0  0
    5.9320  -24.5060   23.4280 C   0  0  0  0  0  0  0  0  0  0  0  0
    5.1500  -25.2070   22.4780 C   0  0  0  0  0  0  0  0  0  0  0  0
    4.9550  -26.6540   22.6130 C   0  0  0  0  0  0  0  0  0  0  0  0
    5.8980  -27.3560   23.2980 N   0  0  0  0  0  0  0  0  0  0  0  0
    5.7290  -28.6840   23.4390 C   0  0  0  0  0  0  0  0  0  0  0  0
    4.7250  -29.4440   22.9720 N   0  0  0  0  0  0  0  0  0  0  0  0
    3.8340  -28.7140   22.2870 C   0  0  0  0  0  0  0  0  0  0  0  0
    2.7180  -29.2260   21.6840 N   0  0  0  0  0  0  0  0  0  0  0  0
    2.0320  -28.2220   21.0510 C   0  0  0  0  0  0  0  0  0  0  0  0
    2.7230  -27.0460   21.2590 C   0  0  0  0  0  0  0  0  0  0  0  0
    3.8670  -27.3450   22.0570 C   0  0  0  0  0  0  0  0  0  0  0  0
    4.5650  -24.4730   21.4280 C   0  0  0  0  0  0  0  0  0  0  0  0
    4.7780  -23.1030   21.3490 C   0  0  0  0  0  0  0  0  0  0  0  0
  1  2  3  0
  2  3  1  0
  4  3  1  6
  4  5  1  0
  5  6  1  0
  6  7  1  0
  7  8  2  0
  8  9  1  0
  9 10  2  0
 10 11  1  0
 11 12  2  0
 12 13  1  0
 13 14  2  0
 14 15  1  0
 15 16  1  0
 16 17  1  0
 17 18  2  0
 18 19  1  0
 10 20  1  0
 20 21  2  0
 21  4  1  0
 21  7  1  0
 19 11  1  0
 19 15  2  0
M  END
$$$$
