RBDSMNWWGHWDMP-CQSZACIVSA-N
     RDKit          3D

 21 24  0  0  0  0  0  0  0  0999 V2000
    3.3270  -18.2710   22.6270 N   0  0  0  0  0  0  0  0  0  0  0  0
    4.0750  -19.1420   22.7610 C   0  0  0  0  0  0  0  0  0  0  0  0
    4.9260  -20.1590   22.9110 N   0  0  0  0  0  0  0  0  0  0  0  0
    5.7670  -20.6870   21.8180 C   0  0  2  0  0  0  0  0  0  0  0  0
    5.2410  -20.2170   20.4470 C   0  0  0  0  0  0  0  0  0  0  0  0
    4.2380  -21.2770   19.9660 C   0  0  0  0  0  0  0  0  0  0  0  0
    4.7610  -22.5070   20.6370 C   0  0  0  0  0  0  0  0  0  0  0  0
    4.4620  -23.8250   20.3550 C   0  0  0  0  0  0  0  0  0  0  0  0
    5.0450  -24.8210   21.1470 C   0  0  0  0  0  0  0  0  0  0  0  0
    5.9060  -24.5140   22.2280 C   0  0  0  0  0  0  0  0  0  0  0  0
    6.4870  -25.5930   23.0330 C   0  0  0  0  0  0  0  0  0  0  0  0
    7.6270  -25.3200   23.7250 N   0  0  0  0  0  0  0  0  0  0  0  0
    8.1680  -26.2970   24.4760 C   0  0  0  0  0  0  0  0  0  0  0  0
    7.7300  -27.5550   24.6370 N   0  0  0  0  0  0  0  0  0  0  0  0
    6.6200  -27.7840   23.9210 C   0  0  0  0  0  0  0  0  0  0  0  0
    5.9620  -28.9830   23.8790 N   0  0  0  0  0  0  0  0  0  0  0  0
    4.8820  -28.8900   23.0400 C   0  0  0  0  0  0  0  0  0  0  0  0
    4.8490  -27.6040   22.5400 C   0  0  0  0  0  0  0  0  0  0  0  0
    5.9440  -26.8860   23.1060 C   0  0  0  0  0  0  0  0  0  0  0  0
    6.1920  -23.1590   22.4850 C   0  0  0  0  0  0  0  0  0  0  0  0
    5.6190  -22.1750   21.6890 C   0  0  0  0  0  0  0  0  0  0  0  0
  1  2  3  0
  2  3  1  0
  4  3  1  1
  4  5  1  0
  5  6  1  0
  6  7  1  0
  7  8  2  0
  8  9  1  0
  9 10  2  0
 10 11  1  0
 11 12  2  0
 12 13  1  0
 13 14  2  0
 14 15  1  0
 15 16  1  0
 16 17  1  0
 17 18  2  0
 18 19  1  0
 10 20  1  0
 20 21  2  0
 21  4  1  0
 21  7  1  0
 19 11  1  0
 19 15  2  0
M  END
$$$$
