KAMXHDXTHDNZTD-UHFFFAOYSA-N
     RDKit          3D

 30 34  0  0  0  0  0  0  0  0999 V2000
   -0.7120   32.1060  -29.6130 N   0  0  0  0  0  0  0  0  0  0  0  0
   -1.3580   31.5930  -28.7960 C   0  0  0  0  0  0  0  0  0  0  0  0
   -2.1650   30.9480  -27.7480 C   0  0  0  0  0  0  0  0  0  0  0  0
   -3.6640   30.9800  -28.0590 C   0  0  1  0  0  0  0  0  0  0  0  0
   -3.9900   30.0450  -29.1750 N   0  0  0  0  0  0  0  0  0  0  0  0
   -4.5380   30.4260  -30.3650 C   0  0  0  0  0  0  0  0  0  0  0  0
   -4.7460   29.2630  -31.0640 C   0  0  0  0  0  0  0  0  0  0  0  0
   -4.3310   28.2100  -30.1990 C   0  0  0  0  0  0  0  0  0  0  0  0
   -4.3540   26.7710  -30.5050 C   0  0  0  0  0  0  0  0  0  0  0  0
   -3.6380   26.0270  -29.6210 N   0  0  0  0  0  0  0  0  0  0  0  0
   -3.6210   24.6890  -29.7970 C   0  0  0  0  0  0  0  0  0  0  0  0
   -2.8480   23.9160  -28.8150 C   0  0  0  0  0  0  0  0  0  0  0  0
   -2.8830   24.0560  -27.4000 C   0  0  0  0  0  0  0  0  0  0  0  0
   -1.9960   23.1300  -26.9100 C   0  0  0  0  0  0  0  0  0  0  0  0
   -1.4860   22.4980  -28.0020 N   0  0  0  0  0  0  0  0  0  0  0  0
   -1.9800   22.9480  -29.1660 N   0  0  0  0  0  0  0  0  0  0  0  0
   -4.2870   24.0660  -30.8390 C   0  0  0  0  0  0  0  0  0  0  0  0
   -4.9950   24.8190  -31.7530 C   0  0  0  0  0  0  0  0  0  0  0  0
   -5.6080   24.1650  -32.7570 N   0  0  0  0  0  0  0  0  0  0  0  0
   -6.2870   24.8830  -33.6760 C   0  0  0  0  0  0  0  0  0  0  0  0
   -6.3890   26.2560  -33.6470 C   0  0  0  0  0  0  0  0  0  0  0  0
   -5.7600   26.9280  -32.6070 C   0  0  0  0  0  0  0  0  0  0  0  0
   -5.0430   26.2180  -31.6100 C   0  0  0  0  0  0  0  0  0  0  0  0
   -3.8590   28.7180  -29.0460 N   0  0  0  0  0  0  0  0  0  0  0  0
   -4.6190   30.7750  -26.8440 C   0  0  0  0  0  0  0  0  0  0  0  0
   -4.8710   32.3020  -26.7980 C   0  0  1  0  0  0  0  0  0  0  0  0
   -4.1310   33.1240  -25.7080 C   0  0  0  0  0  0  0  0  0  0  0  0
   -4.8770   33.3970  -24.5950 N   0  0  0  0  0  0  0  0  0  0  0  0
   -2.9720   33.5290  -25.7750 O   0  0  0  0  0  0  0  0  0  0  0  0
   -4.3240   32.3820  -28.2420 C   0  0  0  0  0  0  0  0  0  0  0  0
  1  2  3  0
  2  3  1  0
  4  3  1  6
  4  5  1  0
  5  6  1  0
  6  7  2  0
  7  8  1  0
  8  9  1  0
  9 10  2  0
 10 11  1  0
 11 12  1  0
 12 13  1  0
 13 14  2  0
 14 15  1  0
 15 16  1  0
 11 17  2  0
 17 18  1  0
 18 19  2  0
 19 20  1  0
 20 21  2  0
 21 22  1  0
 22 23  2  0
  8 24  2  0
  4 25  1  0
 25 26  1  0
 26 27  1  6
 27 28  1  0
 27 29  2  0
 26 30  1  0
 30  4  1  0
 24  5  1  0
 23  9  1  0
 16 12  2  0
 23 18  1  0
M  END
$$$$
