MPYNTRISUCALTC-HXUWFJFHSA-N
     RDKit          3D

 37 42  0  0  0  0  0  0  0  0999 V2000
    8.0620    9.4680   25.0100 C   0  0  0  0  0  0  0  0  0  0  0  0
    8.5970    8.4670   24.2990 C   0  0  0  0  0  0  0  0  0  0  0  0
    9.8860    7.8500   24.7150 C   0  0  0  0  0  0  0  0  0  0  0  0
    9.9990    7.2890   25.8020 O   0  0  0  0  0  0  0  0  0  0  0  0
   10.9300    7.9500   23.8260 N   0  0  0  0  0  0  0  0  0  0  0  0
   12.0730    8.8510   23.8710 C   0  0  0  0  0  0  0  0  0  0  0  0
   12.7210    8.7180   22.4980 C   0  0  0  0  0  0  0  0  0  0  0  0
   12.4020    7.2740   22.0850 C   0  0  1  0  0  0  0  0  0  0  0  0
   13.3370    6.2730   22.5720 N   0  0  0  0  0  0  0  0  0  0  0  0
   13.0810    5.5450   23.6800 N   0  0  0  0  0  0  0  0  0  0  0  0
   14.1390    4.7210   23.7850 C   0  0  0  0  0  0  0  0  0  0  0  0
   14.1920    3.7270   24.8460 C   0  0  0  0  0  0  0  0  0  0  0  0
   13.0700    2.9400   25.1250 C   0  0  0  0  0  0  0  0  0  0  0  0
   13.1120    2.0060   26.1590 C   0  0  0  0  0  0  0  0  0  0  0  0
   14.2790    1.8610   26.9150 C   0  0  0  0  0  0  0  0  0  0  0  0
   14.3150    0.9240   27.9200 O   0  0  0  0  0  0  0  0  0  0  0  0
   13.3240    0.9710   28.8820 C   0  0  0  0  0  0  0  0  0  0  0  0
   13.1760    2.2120   29.5110 C   0  0  0  0  0  0  0  0  0  0  0  0
   12.2000    2.4290   30.4930 C   0  0  0  0  0  0  0  0  0  0  0  0
   11.3790    1.3440   30.8110 C   0  0  0  0  0  0  0  0  0  0  0  0
   11.5000    0.0990   30.2000 C   0  0  0  0  0  0  0  0  0  0  0  0
   12.4810   -0.0990   29.2160 C   0  0  0  0  0  0  0  0  0  0  0  0
   10.5720   -0.7860   30.6930 N   0  0  0  0  0  0  0  0  0  0  0  0
    9.8920   -0.1070   31.5890 C   0  0  0  0  0  0  0  0  0  0  0  0
   10.3390    1.1790   31.6940 N   0  0  0  0  0  0  0  0  0  0  0  0
    9.8070    2.1850   32.5760 C   0  0  0  0  0  0  0  0  0  0  0  0
   15.4310    2.6030   26.6190 C   0  0  0  0  0  0  0  0  0  0  0  0
   16.6930    2.4260   27.4110 C   0  0  0  0  0  0  0  0  0  0  0  0
   15.3710    3.5490   25.5850 C   0  0  0  0  0  0  0  0  0  0  0  0
   15.1060    4.9770   22.7680 C   0  0  0  0  0  0  0  0  0  0  0  0
   16.3730    4.5150   22.3820 C   0  0  0  0  0  0  0  0  0  0  0  0
   17.1550    3.4500   23.0850 C   0  0  0  0  0  0  0  0  0  0  0  0
   16.9420    5.0700   21.2730 N   0  0  0  0  0  0  0  0  0  0  0  0
   16.2790    6.0410   20.6130 C   0  0  0  0  0  0  0  0  0  0  0  0
   15.0790    6.5650   20.9110 N   0  0  0  0  0  0  0  0  0  0  0  0
   14.5490    5.9850   22.0020 C   0  0  0  0  0  0  0  0  0  0  0  0
   11.0030    7.0680   22.6680 C   0  0  0  0  0  0  0  0  0  0  0  0
  1  2  2  0
  2  3  1  0
  3  4  2  0
  3  5  1  0
  5  6  1  0
  6  7  1  0
  7  8  1  0
  8  9  1  1
  9 10  1  0
 10 11  2  0
 11 12  1  0
 12 13  2  0
 13 14  1  0
 14 15  2  0
 15 16  1  0
 16 17  1  0
 17 18  2  0
 18 19  1  0
 19 20  2  0
 20 21  1  0
 21 22  2  0
 21 23  1  0
 23 24  2  0
 24 25  1  0
 25 26  1  0
 15 27  1  0
 27 28  1  0
 27 29  2  0
 11 30  1  0
 30 31  2  0
 31 32  1  0
 31 33  1  0
 33 34  2  0
 34 35  1  0
 35 36  2  0
  8 37  1  0
 37  5  1  0
 36  9  1  0
 29 12  1  0
 36 30  1  0
 22 17  1  0
 25 20  1  0
M  END
$$$$
