DZAUZMTZRSMYAI-SKCDSABHSA-N
     RDKit          3D

 34 36  0  0  0  0  0  0  0  0999 V2000
   -1.7490    0.3620  -22.0650 C   0  0  0  0  0  0  0  0  0  0  0  0
   -2.6660   -0.7260  -22.5960 C   0  0  0  0  0  0  0  0  0  0  0  0
   -2.4750   -1.9420  -21.8800 O   0  0  0  0  0  0  0  0  0  0  0  0
   -3.6250   -2.3680  -21.1360 C   0  0  1  0  0  0  0  0  0  0  0  0
   -3.3400   -3.7770  -20.5980 C   0  0  0  0  0  0  0  0  0  0  0  0
   -4.5700   -4.6590  -20.6280 C   0  0  0  0  0  0  0  0  0  0  0  0
   -4.4450   -6.0520  -20.6410 C   0  0  0  0  0  0  0  0  0  0  0  0
   -5.5850   -6.8610  -20.6520 C   0  0  0  0  0  0  0  0  0  0  0  0
   -6.8600   -6.2930  -20.6660 C   0  0  0  0  0  0  0  0  0  0  0  0
   -7.8900   -7.1910  -20.6810 O   0  0  0  0  0  0  0  0  0  0  0  0
   -8.5870   -7.3850  -19.4450 C   0  0  0  0  0  0  0  0  0  0  0  0
  -10.0790   -7.6270  -19.7380 C   0  0  1  0  0  0  0  0  0  0  0  0
  -10.2740   -8.9740  -20.2500 O   0  0  0  0  0  0  0  0  0  0  0  0
  -10.9040   -9.2710  -21.4080 C   0  0  0  0  0  0  0  0  0  0  0  0
  -12.5390   -9.1570  -21.6670 S   0  0  0  0  0  0  0  0  0  0  0  0
  -10.0600   -9.6780  -22.3950 N   0  0  0  0  0  0  0  0  0  0  0  0
   -8.6290   -9.8040  -22.2480 C   0  0  0  0  0  0  0  0  0  0  0  0
   -7.9470   -9.8030  -23.5890 C   0  0  0  0  0  0  0  0  0  0  0  0
   -6.7580  -10.5190  -23.7930 C   0  0  0  0  0  0  0  0  0  0  0  0
   -6.1240  -10.4960  -25.0360 C   0  0  0  0  0  0  0  0  0  0  0  0
   -6.6640   -9.7510  -26.0840 C   0  0  0  0  0  0  0  0  0  0  0  0
   -7.8380   -9.0260  -25.8870 C   0  0  0  0  0  0  0  0  0  0  0  0
   -8.4750   -9.0490  -24.6470 C   0  0  0  0  0  0  0  0  0  0  0  0
  -10.9110   -7.4960  -18.4670 C   0  0  0  0  0  0  0  0  0  0  0  0
  -10.7410   -6.3770  -17.6350 C   0  0  0  0  0  0  0  0  0  0  0  0
  -11.4710   -6.2510  -16.4520 C   0  0  0  0  0  0  0  0  0  0  0  0
  -12.3800   -7.2420  -16.0830 C   0  0  0  0  0  0  0  0  0  0  0  0
  -12.5580   -8.3600  -16.8960 C   0  0  0  0  0  0  0  0  0  0  0  0
  -11.8250   -8.4900  -18.0770 C   0  0  0  0  0  0  0  0  0  0  0  0
   -6.9920   -4.9050  -20.6370 C   0  0  0  0  0  0  0  0  0  0  0  0
   -5.8520   -4.0930  -20.6150 C   0  0  0  0  0  0  0  0  0  0  0  0
   -3.9230   -1.4400  -19.9520 C   0  0  0  0  0  0  0  0  0  0  0  0
   -4.8210   -0.6200  -19.8580 O   0  0  0  0  0  0  0  0  0  0  0  0
   -3.0860   -1.6370  -18.9080 O   0  0  0  0  0  0  0  0  0  0  0  0
  1  2  1  0
  2  3  1  0
  3  4  1  0
  4  5  1  1
  5  6  1  0
  6  7  2  0
  7  8  1  0
  8  9  2  0
  9 10  1  0
 10 11  1  0
 12 11  1  1
 12 13  1  0
 13 14  1  0
 14 15  2  0
 14 16  1  0
 16 17  1  0
 17 18  1  0
 18 19  2  0
 19 20  1  0
 20 21  2  0
 21 22  1  0
 22 23  2  0
 12 24  1  0
 24 25  2  0
 25 26  1  0
 26 27  2  0
 27 28  1  0
 28 29  2  0
  9 30  1  0
 30 31  2  0
  4 32  1  0
 32 33  2  0
 32 34  1  0
 31  6  1  0
 23 18  1  0
 29 24  1  0
M  END
$$$$
