DZAUZMTZRSMYAI-SKCDSABHSA-N
     RDKit          3D

 34 36  0  0  0  0  0  0  0  0999 V2000
   -3.0970   -0.4140  -22.1020 C   0  0  0  0  0  0  0  0  0  0  0  0
   -3.1770   -1.9030  -22.3860 C   0  0  0  0  0  0  0  0  0  0  0  0
   -2.8620   -2.6570  -21.2190 O   0  0  0  0  0  0  0  0  0  0  0  0
   -4.0090   -3.1650  -20.5250 C   0  0  1  0  0  0  0  0  0  0  0  0
   -3.7880   -4.6660  -20.2880 C   0  0  0  0  0  0  0  0  0  0  0  0
   -5.0420   -5.4750  -20.5410 C   0  0  0  0  0  0  0  0  0  0  0  0
   -4.9760   -6.8660  -20.6720 C   0  0  0  0  0  0  0  0  0  0  0  0
   -6.1400   -7.6080  -20.8880 C   0  0  0  0  0  0  0  0  0  0  0  0
   -7.3800   -6.9740  -20.9930 C   0  0  0  0  0  0  0  0  0  0  0  0
   -8.4380   -7.8110  -21.2080 O   0  0  0  0  0  0  0  0  0  0  0  0
   -8.1260   -9.1880  -21.4480 C   0  0  0  0  0  0  0  0  0  0  0  0
   -8.6220   -9.5830  -22.8510 C   0  0  1  0  0  0  0  0  0  0  0  0
   -9.3760   -8.4880  -23.4400 O   0  0  0  0  0  0  0  0  0  0  0  0
  -10.6740   -8.5590  -23.8060 C   0  0  0  0  0  0  0  0  0  0  0  0
  -11.9010   -9.1780  -22.8770 S   0  0  0  0  0  0  0  0  0  0  0  0
  -10.9160   -8.0490  -25.0460 N   0  0  0  0  0  0  0  0  0  0  0  0
   -9.9040   -7.4940  -25.9140 C   0  0  0  0  0  0  0  0  0  0  0  0
  -10.0540   -8.0160  -27.3180 C   0  0  0  0  0  0  0  0  0  0  0  0
  -11.3050   -8.4200  -27.8060 C   0  0  0  0  0  0  0  0  0  0  0  0
  -11.4290   -8.9200  -29.1030 C   0  0  0  0  0  0  0  0  0  0  0  0
  -10.3060   -9.0300  -29.9210 C   0  0  0  0  0  0  0  0  0  0  0  0
   -9.0560   -8.6420  -29.4410 C   0  0  0  0  0  0  0  0  0  0  0  0
   -8.9290   -8.1410  -28.1460 C   0  0  0  0  0  0  0  0  0  0  0  0
   -7.4490   -9.8810  -23.7780 C   0  0  0  0  0  0  0  0  0  0  0  0
   -7.6040   -9.7360  -25.1670 C   0  0  0  0  0  0  0  0  0  0  0  0
   -6.5530  -10.0320  -26.0360 C   0  0  0  0  0  0  0  0  0  0  0  0
   -5.3330  -10.4780  -25.5310 C   0  0  0  0  0  0  0  0  0  0  0  0
   -5.1630  -10.6290  -24.1560 C   0  0  0  0  0  0  0  0  0  0  0  0
   -6.2160  -10.3390  -23.2850 C   0  0  0  0  0  0  0  0  0  0  0  0
   -7.4550   -5.5900  -20.8470 C   0  0  0  0  0  0  0  0  0  0  0  0
   -6.2920   -4.8440  -20.6190 C   0  0  0  0  0  0  0  0  0  0  0  0
   -4.2150   -2.4780  -19.1700 C   0  0  0  0  0  0  0  0  0  0  0  0
   -5.1170   -2.6650  -18.3700 O   0  0  0  0  0  0  0  0  0  0  0  0
   -3.2220   -1.6110  -18.8650 O   0  0  0  0  0  0  0  0  0  0  0  0
  1  2  1  0
  2  3  1  0
  3  4  1  0
  4  5  1  1
  5  6  1  0
  6  7  2  0
  7  8  1  0
  8  9  2  0
  9 10  1  0
 10 11  1  0
 12 11  1  1
 12 13  1  0
 13 14  1  0
 14 15  2  0
 14 16  1  0
 16 17  1  0
 17 18  1  0
 18 19  2  0
 19 20  1  0
 20 21  2  0
 21 22  1  0
 22 23  2  0
 12 24  1  0
 24 25  2  0
 25 26  1  0
 26 27  2  0
 27 28  1  0
 28 29  2  0
  9 30  1  0
 30 31  2  0
  4 32  1  0
 32 33  2  0
 32 34  1  0
 31  6  1  0
 23 18  1  0
 29 24  1  0
M  END
$$$$
