ULCJJWMOPWEMQM-LPZXAVJZSA-N
     RDKit          3D

 34 37  0  0  0  0  0  0  0  0999 V2000
   -2.7290  -14.3530   19.4540 C   0  0  0  0  0  0  0  0  0  0  0  0
   -2.4150  -15.3380   18.3170 C   0  0  1  0  0  0  0  0  0  0  0  0
   -2.6370  -14.6220   17.0740 O   0  0  0  0  0  0  0  0  0  0  0  0
   -0.9270  -15.7090   18.3500 C   0  0  0  0  0  0  0  0  0  0  0  0
   -0.1640  -15.6270   17.1700 C   0  0  0  0  0  0  0  0  0  0  0  0
    1.2010  -15.9360   17.1600 C   0  0  0  0  0  0  0  0  0  0  0  0
    1.8630  -16.3410   18.3260 C   0  0  0  0  0  0  0  0  0  0  0  0
    3.2350  -16.6530   18.2540 N   0  0  0  0  0  0  0  0  0  0  0  0
    4.0530  -17.3370   19.0930 C   0  0  0  0  0  0  0  0  0  0  0  0
    3.9410  -18.6160   19.4690 N   0  0  0  0  0  0  0  0  0  0  0  0
    4.9880  -18.8310   20.2720 N   0  0  0  0  0  0  0  0  0  0  0  0
    5.2310  -20.1810   20.7850 C   0  0  1  0  0  0  0  0  0  0  0  0
    6.4740  -20.8070   20.1200 C   0  0  0  0  0  0  0  0  0  0  0  0
    7.3310  -21.6380   21.0760 C   0  0  0  0  0  0  0  0  0  0  0  0
    6.4510  -22.5070   21.9880 C   0  0  1  0  0  0  0  0  0  0  0  0
    7.2790  -23.3920   22.8300 N   0  0  0  0  0  0  0  0  0  0  0  0
    6.4580  -24.3230   23.6500 C   0  0  0  0  0  0  0  0  0  0  0  0
    6.6420  -25.4110   22.5880 C   0  0  0  0  0  0  0  0  0  0  0  0
    7.8100  -24.5600   22.0800 C   0  0  0  0  0  0  0  0  0  0  0  0
    5.5930  -21.5900   22.8920 C   0  0  0  0  0  0  0  0  0  0  0  0
    5.3090  -20.1850   22.3210 C   0  0  2  0  0  0  0  0  0  0  0  0
    4.0480  -19.6790   22.9050 C   0  0  0  0  0  0  0  0  0  0  0  0
    3.0320  -19.3150   23.3300 N   0  0  0  0  0  0  0  0  0  0  0  0
    5.7750  -17.7320   20.4520 C   0  0  0  0  0  0  0  0  0  0  0  0
    5.2170  -16.7350   19.6690 C   0  0  0  0  0  0  0  0  0  0  0  0
    5.6970  -15.3840   19.4500 C   0  0  0  0  0  0  0  0  0  0  0  0
    6.9940  -15.2550   19.0460 N   0  0  0  0  0  0  0  0  0  0  0  0
    4.9830  -14.3920   19.5820 O   0  0  0  0  0  0  0  0  0  0  0  0
    1.1020  -16.4520   19.4920 C   0  0  0  0  0  0  0  0  0  0  0  0
   -0.2650  -16.1300   19.5120 C   0  0  0  0  0  0  0  0  0  0  0  0
   -3.4110  -16.5310   18.4160 C   0  0  0  0  0  0  0  0  0  0  0  0
   -2.7620  -17.7170   18.5280 F   0  0  0  0  0  0  0  0  0  0  0  0
   -4.2100  -16.4190   19.5060 F   0  0  0  0  0  0  0  0  0  0  0  0
   -4.2140  -16.6270   17.3290 F   0  0  0  0  0  0  0  0  0  0  0  0
  2  1  1  1
  2  3  1  0
  2  4  1  0
  4  5  2  0
  5  6  1  0
  6  7  2  0
  7  8  1  0
  8  9  1  0
  9 10  2  0
 10 11  1  0
 12 11  1  6
 12 13  1  0
 13 14  1  0
 14 15  1  0
 15 16  1  1
 16 17  1  0
 17 18  1  0
 18 19  1  0
 15 20  1  0
 20 21  1  0
 21 22  1  1
 22 23  3  0
 11 24  1  0
 24 25  2  0
 25 26  1  0
 26 27  1  0
 26 28  2  0
  7 29  1  0
 29 30  2  0
  2 31  1  0
 31 32  1  0
 31 33  1  0
 31 34  1  0
 30  4  1  0
 25  9  1  0
 21 12  1  0
 19 16  1  0
M  END
$$$$
