ULCJJWMOPWEMQM-LPZXAVJZSA-N
     RDKit          3D

 34 37  0  0  0  0  0  0  0  0999 V2000
    6.9720  -28.6060   22.0580 C   0  0  0  0  0  0  0  0  0  0  0  0
    6.2640  -27.9390   23.2480 C   0  0  1  0  0  0  0  0  0  0  0  0
    6.9160  -28.4320   24.4470 O   0  0  0  0  0  0  0  0  0  0  0  0
    6.5050  -26.4240   23.2100 C   0  0  0  0  0  0  0  0  0  0  0  0
    5.5880  -25.5910   22.5410 C   0  0  0  0  0  0  0  0  0  0  0  0
    5.7580  -24.2030   22.5000 C   0  0  0  0  0  0  0  0  0  0  0  0
    6.8500  -23.5850   23.1230 C   0  0  0  0  0  0  0  0  0  0  0  0
    6.9770  -22.1850   23.0370 N   0  0  0  0  0  0  0  0  0  0  0  0
    7.0070  -21.3430   21.9740 C   0  0  0  0  0  0  0  0  0  0  0  0
    5.9870  -20.6430   21.4660 N   0  0  0  0  0  0  0  0  0  0  0  0
    6.5160  -19.9480   20.4530 N   0  0  0  0  0  0  0  0  0  0  0  0
    5.6810  -18.9830   19.7350 C   0  0  1  0  0  0  0  0  0  0  0  0
    4.4040  -19.6550   19.1920 C   0  0  0  0  0  0  0  0  0  0  0  0
    3.1560  -18.7760   19.2900 C   0  0  0  0  0  0  0  0  0  0  0  0
    3.4710  -17.3290   18.8820 C   0  0  1  0  0  0  0  0  0  0  0  0
    2.2450  -16.5080   18.8670 N   0  0  0  0  0  0  0  0  0  0  0  0
    2.2190  -15.5520   17.7280 C   0  0  0  0  0  0  0  0  0  0  0  0
    1.3840  -16.5480   16.9180 C   0  0  0  0  0  0  0  0  0  0  0  0
    1.0890  -17.2210   18.2620 C   0  0  0  0  0  0  0  0  0  0  0  0
    4.4820  -16.7260   19.8870 C   0  0  0  0  0  0  0  0  0  0  0  0
    5.3840  -17.7500   20.6060 C   0  0  2  0  0  0  0  0  0  0  0  0
    6.6410  -17.0820   21.0040 C   0  0  0  0  0  0  0  0  0  0  0  0
    7.6450  -16.5610   21.2650 N   0  0  0  0  0  0  0  0  0  0  0  0
    7.8460  -20.1820   20.2660 C   0  0  0  0  0  0  0  0  0  0  0  0
    8.2200  -21.0670   21.2630 C   0  0  0  0  0  0  0  0  0  0  0  0
    9.5380  -21.5950   21.5550 C   0  0  0  0  0  0  0  0  0  0  0  0
   10.3510  -21.8320   20.4850 N   0  0  0  0  0  0  0  0  0  0  0  0
    9.9400  -21.7950   22.6990 O   0  0  0  0  0  0  0  0  0  0  0  0
    7.7770  -24.4110   23.7620 C   0  0  0  0  0  0  0  0  0  0  0  0
    7.6050  -25.8050   23.8190 C   0  0  0  0  0  0  0  0  0  0  0  0
    4.7730  -28.3870   23.2430 C   0  0  0  0  0  0  0  0  0  0  0  0
    4.3270  -28.6230   21.9840 F   0  0  0  0  0  0  0  0  0  0  0  0
    4.6000  -29.5360   23.9410 F   0  0  0  0  0  0  0  0  0  0  0  0
    3.9510  -27.4530   23.7800 F   0  0  0  0  0  0  0  0  0  0  0  0
  2  1  1  6
  2  3  1  0
  2  4  1  0
  4  5  2  0
  5  6  1  0
  6  7  2  0
  7  8  1  0
  8  9  1  0
  9 10  2  0
 10 11  1  0
 12 11  1  1
 12 13  1  0
 13 14  1  0
 14 15  1  0
 15 16  1  1
 16 17  1  0
 17 18  1  0
 18 19  1  0
 15 20  1  0
 20 21  1  0
 21 22  1  6
 22 23  3  0
 11 24  1  0
 24 25  2  0
 25 26  1  0
 26 27  1  0
 26 28  2  0
  7 29  1  0
 29 30  2  0
  2 31  1  0
 31 32  1  0
 31 33  1  0
 31 34  1  0
 30  4  1  0
 25  9  1  0
 21 12  1  0
 19 16  1  0
M  END
$$$$
