LOCCAHWMIIHOFH-UHFFFAOYSA-N
     RDKit          3D

 34 38  0  0  0  0  0  0  0  0999 V2000
   32.5790   50.9970   49.8960 C   0  0  0  0  0  0  0  0  0  0  0  0
   34.1200   51.8660   49.6630 S   0  0  0  0  0  0  0  0  0  0  0  0
   35.0710   51.3420   50.6190 O   0  0  0  0  0  0  0  0  0  0  0  0
   33.8240   53.2810   49.6020 O   0  0  0  0  0  0  0  0  0  0  0  0
   34.6080   51.3740   48.1250 N   0  0  0  0  0  0  0  0  0  0  0  0
   34.2730   49.9830   47.7160 C   0  0  0  0  0  0  0  0  0  0  0  0
   35.0890   49.5840   46.4690 C   0  0  0  0  0  0  0  0  0  0  0  0
   34.8840   50.5200   45.3390 N   0  0  0  0  0  0  0  0  0  0  0  0
   35.6990   50.1530   44.1660 C   0  0  0  0  0  0  0  0  0  0  0  0
   35.0310   49.0740   43.3670 C   0  0  0  0  0  0  0  0  0  0  0  0
   33.8210   48.4490   43.5990 C   0  0  0  0  0  0  0  0  0  0  0  0
   33.6610   47.5450   42.5760 N   0  0  0  0  0  0  0  0  0  0  0  0
   32.6350   46.6630   42.2580 C   0  0  0  0  0  0  0  0  0  0  0  0
   31.2240   46.6170   43.2630 Cl  0  0  0  0  0  0  0  0  0  0  0  0
   32.7910   45.9040   41.1480 C   0  0  0  0  0  0  0  0  0  0  0  0
   31.7680   44.9440   40.7010 C   0  0  0  0  0  0  0  0  0  0  0  0
   30.8820   44.3110   41.5470 C   0  0  0  0  0  0  0  0  0  0  0  0
   29.9470   43.4230   41.1410 N   0  0  0  0  0  0  0  0  0  0  0  0
   29.9140   43.1500   39.8320 C   0  0  0  0  0  0  0  0  0  0  0  0
   28.9780   42.2620   39.3970 N   0  0  0  0  0  0  0  0  0  0  0  0
   30.7330   43.6850   38.9220 N   0  0  0  0  0  0  0  0  0  0  0  0
   31.6500   44.5660   39.3800 C   0  0  0  0  0  0  0  0  0  0  0  0
   33.9080   45.9800   40.3230 N   0  0  0  0  0  0  0  0  0  0  0  0
   34.9090   46.7940   40.5990 C   0  0  0  0  0  0  0  0  0  0  0  0
   36.0000   46.7940   39.7280 N   0  0  0  0  0  0  0  0  0  0  0  0
   35.8630   47.0080   38.2780 C   0  0  0  0  0  0  0  0  0  0  0  0
   37.1420   47.6020   37.6720 C   0  0  0  0  0  0  0  0  0  0  0  0
   38.3070   46.8430   38.0170 O   0  0  0  0  0  0  0  0  0  0  0  0
   38.4670   46.8330   39.4410 C   0  0  0  0  0  0  0  0  0  0  0  0
   37.2720   46.1660   40.1270 C   0  0  0  0  0  0  0  0  0  0  0  0
   34.7860   47.6350   41.7910 C   0  0  0  0  0  0  0  0  0  0  0  0
   35.6250   48.5470   42.2390 N   0  0  0  0  0  0  0  0  0  0  0  0
   35.2320   51.8900   45.7790 C   0  0  0  0  0  0  0  0  0  0  0  0
   34.4180   52.3390   47.0080 C   0  0  0  0  0  0  0  0  0  0  0  0
  1  2  1  0
  2  3  2  0
  2  4  2  0
  2  5  1  0
  5  6  1  0
  6  7  1  0
  7  8  1  0
  8  9  1  0
  9 10  1  0
 10 11  2  0
 11 12  1  0
 12 13  1  0
 13 14  1  0
 13 15  2  0
 15 16  1  0
 16 17  2  0
 17 18  1  0
 18 19  2  0
 19 20  1  0
 19 21  1  0
 21 22  2  0
 15 23  1  0
 23 24  2  0
 24 25  1  0
 25 26  1  0
 26 27  1  0
 27 28  1  0
 28 29  1  0
 29 30  1  0
 24 31  1  0
 31 32  2  0
  8 33  1  0
 33 34  1  0
 34  5  1  0
 32 10  1  0
 31 12  1  0
 22 16  1  0
 30 25  1  0
M  END
$$$$
