DUMWKJNRWPLXHR-UHFFFAOYSA-N
     RDKit          3D

 19 20  0  0  0  0  0  0  0  0999 V2000
   -4.8110   19.3920  -31.9640 N   0  0  0  0  0  0  0  0  0  0  0  0
   -6.1780   19.8610  -32.1580 C   0  0  0  0  0  0  0  0  0  0  0  0
   -6.2200   21.3870  -32.0860 C   0  0  0  0  0  0  0  0  0  0  0  0
   -4.8570   22.0340  -32.3360 C   0  0  0  0  0  0  0  0  0  0  0  0
   -4.5000   23.0720  -31.3870 N   0  0  0  0  0  0  0  0  0  0  0  0
   -3.8510   22.9010  -30.1800 C   0  0  0  0  0  0  0  0  0  0  0  0
   -3.4200   21.5850  -29.6120 C   0  0  0  0  0  0  0  0  0  0  0  0
   -4.4080   21.0980  -28.5470 C   0  0  0  0  0  0  0  0  0  0  0  0
   -4.2550   21.8500  -27.2990 N   0  0  0  0  0  0  0  0  0  0  0  0
   -3.6630   24.0620  -29.5840 N   0  0  0  0  0  0  0  0  0  0  0  0
   -4.1950   25.0080  -30.4190 C   0  0  0  0  0  0  0  0  0  0  0  0
   -4.2550   26.3990  -30.2490 C   0  0  0  0  0  0  0  0  0  0  0  0
   -4.8480   27.1740  -31.2550 C   0  0  0  0  0  0  0  0  0  0  0  0
   -4.9520   28.6560  -31.1500 C   0  0  0  0  0  0  0  0  0  0  0  0
   -5.9140   29.2850  -31.8890 N   0  0  0  0  0  0  0  0  0  0  0  0
   -4.2190   29.2980  -30.4080 O   0  0  0  0  0  0  0  0  0  0  0  0
   -5.3860   26.5600  -32.3950 C   0  0  0  0  0  0  0  0  0  0  0  0
   -5.3330   25.1720  -32.5760 C   0  0  0  0  0  0  0  0  0  0  0  0
   -4.7250   24.4220  -31.5620 C   0  0  0  0  0  0  0  0  0  0  0  0
  1  2  1  0
  2  3  1  0
  3  4  1  0
  4  5  1  0
  5  6  1  0
  6  7  1  0
  7  8  1  0
  8  9  1  0
  6 10  2  0
 10 11  1  0
 11 12  2  0
 12 13  1  0
 13 14  1  0
 14 15  1  0
 14 16  2  0
 13 17  2  0
 17 18  1  0
 18 19  2  0
 19  5  1  0
 19 11  1  0
M  END
$$$$
