GLNRSAJLZFLIFA-UHFFFAOYSA-N
     RDKit          3D

 23 26  0  0  0  0  0  0  0  0999 V2000
   17.9750    0.8670   25.3530 C   0  0  0  0  0  0  0  0  0  0  0  0
   17.5710   -0.3410   25.9200 C   0  0  0  0  0  0  0  0  0  0  0  0
   16.5390   -0.3680   26.8640 C   0  0  0  0  0  0  0  0  0  0  0  0
   15.9070    0.8170   27.2430 C   0  0  0  0  0  0  0  0  0  0  0  0
   14.8900    0.9350   28.1500 O   0  0  0  0  0  0  0  0  0  0  0  0
   14.1250    2.1400   28.1120 C   0  0  0  0  0  0  0  0  0  0  0  0
   13.1330    2.0610   29.2120 C   0  0  0  0  0  0  0  0  0  0  0  0
   13.3140    1.8090   30.4930 N   0  0  0  0  0  0  0  0  0  0  0  0
   12.0660    1.8330   31.0770 N   0  0  0  0  0  0  0  0  0  0  0  0
   11.2080    2.0860   30.1090 C   0  0  0  0  0  0  0  0  0  0  0  0
    9.7320    2.2170   30.1770 C   0  0  0  0  0  0  0  0  0  0  0  0
    9.0690    1.0270   30.7930 C   0  0  0  0  0  0  0  0  0  0  0  0
    7.9680    1.0340   31.5200 N   0  0  0  0  0  0  0  0  0  0  0  0
    7.7540   -0.2720   31.8850 C   0  0  0  0  0  0  0  0  0  0  0  0
    6.7240   -0.8320   32.6560 C   0  0  0  0  0  0  0  0  0  0  0  0
    6.7320   -2.2130   32.8850 C   0  0  0  0  0  0  0  0  0  0  0  0
    7.7430   -3.0200   32.3580 C   0  0  0  0  0  0  0  0  0  0  0  0
    8.7790   -2.4790   31.5870 C   0  0  0  0  0  0  0  0  0  0  0  0
    8.7470   -1.0990   31.3760 C   0  0  0  0  0  0  0  0  0  0  0  0
    9.5750   -0.2510   30.6900 N   0  0  0  0  0  0  0  0  0  0  0  0
   11.8110    2.2390   28.8890 O   0  0  0  0  0  0  0  0  0  0  0  0
   16.3180    2.0240   26.6710 C   0  0  0  0  0  0  0  0  0  0  0  0
   17.3480    2.0510   25.7290 C   0  0  0  0  0  0  0  0  0  0  0  0
  1  2  2  0
  2  3  1  0
  3  4  2  0
  4  5  1  0
  5  6  1  0
  6  7  1  0
  7  8  2  0
  8  9  1  0
  9 10  2  0
 10 11  1  0
 11 12  1  0
 12 13  2  0
 13 14  1  0
 14 15  2  0
 15 16  1  0
 16 17  2  0
 17 18  1  0
 18 19  2  0
 19 20  1  0
 10 21  1  0
  4 22  1  0
 22 23  2  0
 23  1  1  0
 21  7  1  0
 20 12  1  0
 19 14  1  0
M  END
$$$$
