VZZGNDREIXJEAB-UHFFFAOYSA-N
     RDKit          3D

 29 33  0  0  0  0  0  0  0  0999 V2000
   37.9490   48.0230   41.9040 C   0  0  0  0  0  0  0  0  0  0  0  0
   36.7630   48.7830   41.3200 C   0  0  0  0  0  0  0  0  0  0  0  0
   35.4160   48.3840   41.9560 C   0  0  0  0  0  0  0  0  0  0  0  0
   35.6440   47.7530   43.3460 C   0  0  0  0  0  0  0  0  0  0  0  0
   35.3490   48.7140   44.4930 C   0  0  0  0  0  0  0  0  0  0  0  0
   34.6360   47.5160   41.0830 N   0  0  0  0  0  0  0  0  0  0  0  0
   34.9310   47.1790   39.7910 C   0  0  0  0  0  0  0  0  0  0  0  0
   34.0270   46.3740   39.2790 N   0  0  0  0  0  0  0  0  0  0  0  0
   33.0950   46.1790   40.2800 C   0  0  0  0  0  0  0  0  0  0  0  0
   31.9120   45.4440   40.3930 C   0  0  0  0  0  0  0  0  0  0  0  0
   31.3430   44.6340   39.3130 C   0  0  0  0  0  0  0  0  0  0  0  0
   31.5000   44.9860   37.9710 C   0  0  0  0  0  0  0  0  0  0  0  0
   31.0040   44.2660   36.9270 N   0  0  0  0  0  0  0  0  0  0  0  0
   30.3340   43.1490   37.2510 C   0  0  0  0  0  0  0  0  0  0  0  0
   29.7890   42.4270   36.2110 N   0  0  0  0  0  0  0  0  0  0  0  0
   30.1570   42.7950   38.5850 C   0  0  0  0  0  0  0  0  0  0  0  0
   30.6580   43.5070   39.6260 N   0  0  0  0  0  0  0  0  0  0  0  0
   31.2440   45.4750   41.5930 N   0  0  0  0  0  0  0  0  0  0  0  0
   31.7060   46.2030   42.6290 C   0  0  0  0  0  0  0  0  0  0  0  0
   30.9830   46.1810   43.8050 N   0  0  0  0  0  0  0  0  0  0  0  0
   29.5420   45.9120   43.7340 C   0  0  0  0  0  0  0  0  0  0  0  0
   28.9460   45.7010   45.1460 C   0  0  1  0  0  0  0  0  0  0  0  0
   29.6010   44.5360   45.8830 C   0  0  0  0  0  0  0  0  0  0  0  0
   30.7740   45.1800   46.6120 C   0  0  0  0  0  0  0  0  0  0  0  0
   30.6820   46.6520   46.2260 C   0  0  1  0  0  0  0  0  0  0  0  0
   31.4740   46.9750   44.9380 C   0  0  0  0  0  0  0  0  0  0  0  0
   29.2730   46.8440   45.9670 O   0  0  0  0  0  0  0  0  0  0  0  0
   32.8310   46.9330   42.5910 N   0  0  0  0  0  0  0  0  0  0  0  0
   33.4690   46.8820   41.4150 C   0  0  0  0  0  0  0  0  0  0  0  0
  1  2  1  0
  2  3  1  0
  3  4  1  0
  4  5  1  0
  3  6  1  0
  6  7  1  0
  7  8  2  0
  8  9  1  0
  9 10  2  0
 10 11  1  0
 11 12  2  0
 12 13  1  0
 13 14  2  0
 14 15  1  0
 14 16  1  0
 16 17  2  0
 10 18  1  0
 18 19  2  0
 19 20  1  0
 20 21  1  0
 22 21  1  1
 22 23  1  0
 23 24  1  0
 25 24  1  1
 25 26  1  0
 25 27  1  0
 19 28  1  0
 28 29  2  0
 29  6  1  0
 29  9  1  0
 17 11  1  0
 26 20  1  0
 27 22  1  0
M  END
$$$$
