VZZGNDREIXJEAB-UHFFFAOYSA-N
     RDKit          3D

 29 33  0  0  0  0  0  0  0  0999 V2000
   29.0560   44.1050   45.9110 C   0  0  0  0  0  0  0  0  0  0  0  0
   30.3950   44.7590   46.2310 C   0  0  0  0  0  0  0  0  0  0  0  0
   30.8200   45.8120   45.1860 C   0  0  0  0  0  0  0  0  0  0  0  0
   30.0710   47.1400   45.4260 C   0  0  0  0  0  0  0  0  0  0  0  0
   30.4820   47.8310   46.7210 C   0  0  0  0  0  0  0  0  0  0  0  0
   30.6500   45.3260   43.8230 N   0  0  0  0  0  0  0  0  0  0  0  0
   29.6510   44.5130   43.3630 C   0  0  0  0  0  0  0  0  0  0  0  0
   29.7810   44.2600   42.0800 N   0  0  0  0  0  0  0  0  0  0  0  0
   30.9190   44.9340   41.6830 C   0  0  0  0  0  0  0  0  0  0  0  0
   31.6010   45.0850   40.4720 C   0  0  0  0  0  0  0  0  0  0  0  0
   31.1890   44.4560   39.2150 C   0  0  0  0  0  0  0  0  0  0  0  0
   31.4540   45.0470   37.9780 C   0  0  0  0  0  0  0  0  0  0  0  0
   31.1060   44.5030   36.7780 N   0  0  0  0  0  0  0  0  0  0  0  0
   30.4770   43.3180   36.8330 C   0  0  0  0  0  0  0  0  0  0  0  0
   30.0800   42.7690   35.6320 N   0  0  0  0  0  0  0  0  0  0  0  0
   30.1940   42.7250   38.0590 C   0  0  0  0  0  0  0  0  0  0  0  0
   30.5480   43.2620   39.2550 N   0  0  0  0  0  0  0  0  0  0  0  0
   32.7220   45.8780   40.4560 N   0  0  0  0  0  0  0  0  0  0  0  0
   33.1630   46.4830   41.5770 C   0  0  0  0  0  0  0  0  0  0  0  0
   34.2940   47.2690   41.4820 N   0  0  0  0  0  0  0  0  0  0  0  0
   34.6830   48.0770   42.6450 C   0  0  0  0  0  0  0  0  0  0  0  0
   36.0810   48.7070   42.4420 C   0  0  1  0  0  0  0  0  0  0  0  0
   37.1650   47.6540   42.2230 C   0  0  0  0  0  0  0  0  0  0  0  0
   37.1760   47.4500   40.7140 C   0  0  0  0  0  0  0  0  0  0  0  0
   36.0990   48.4040   40.2070 C   0  0  1  0  0  0  0  0  0  0  0  0
   34.7030   47.7430   40.1550 C   0  0  0  0  0  0  0  0  0  0  0  0
   36.0830   49.4520   41.2030 O   0  0  0  0  0  0  0  0  0  0  0  0
   32.5610   46.3810   42.7720 N   0  0  0  0  0  0  0  0  0  0  0  0
   31.4670   45.6100   42.7610 C   0  0  0  0  0  0  0  0  0  0  0  0
  1  2  1  0
  2  3  1  0
  3  4  1  0
  4  5  1  0
  3  6  1  0
  6  7  1  0
  7  8  2  0
  8  9  1  0
  9 10  2  0
 10 11  1  0
 11 12  2  0
 12 13  1  0
 13 14  2  0
 14 15  1  0
 14 16  1  0
 16 17  2  0
 10 18  1  0
 18 19  2  0
 19 20  1  0
 20 21  1  0
 22 21  1  1
 22 23  1  0
 23 24  1  0
 25 24  1  6
 25 26  1  0
 25 27  1  0
 19 28  1  0
 28 29  2  0
 29  6  1  0
 29  9  1  0
 17 11  1  0
 26 20  1  0
 27 22  1  0
M  END
$$$$
