
 OpenBabel08262610393D

 24 27  0  0  0  0  0  0  0  0999 V2000
  103.0000  100.8490  107.3850 S   0  0  0  0  0  0  0  0  0  0  0  0
  102.0590  100.1210  106.0780 C   0  0  0  0  0  0  0  0  0  0  0  0
  101.2360  100.8270  105.2280 N   0  0  0  0  0  0  0  0  0  0  0  0
  100.6860   99.8590  104.4210 C   0  0  0  0  0  0  0  0  0  0  0  0
  102.0340   98.8420  105.7820 N   0  0  0  0  0  0  0  0  0  0  0  0
  101.1450   98.6710  104.7230 N   0  0  0  0  0  0  0  0  0  0  0  0
   99.3880  100.2480  103.0810 Br  0  0  0  0  0  0  0  0  0  0  0  0
  101.0010  102.2120  105.2130 C   0  0  0  0  0  0  0  0  0  0  0  0
  100.7440  105.0110  105.2060 C   0  0  0  0  0  0  0  0  0  0  0  0
  101.5830  104.3670  104.2990 C   0  0  0  0  0  0  0  0  0  0  0  0
   99.9750  104.2520  106.1420 C   0  0  0  0  0  0  0  0  0  0  0  0
  101.7050  102.9860  104.2950 C   0  0  0  0  0  0  0  0  0  0  0  0
  100.1090  102.8260  106.1460 C   0  0  0  0  0  0  0  0  0  0  0  0
   99.0780  104.8530  107.0740 C   0  0  0  0  0  0  0  0  0  0  0  0
   99.3500  102.0700  107.0830 C   0  0  0  0  0  0  0  0  0  0  0  0
   98.3370  104.0740  107.9550 C   0  0  0  0  0  0  0  0  0  0  0  0
   98.4780  102.6960  107.9650 C   0  0  0  0  0  0  0  0  0  0  0  0
  100.6950  106.5310  105.2090 C   0  0  0  0  0  0  0  0  0  0  0  0
  100.8750  107.3750  106.4510 C   0  0  0  0  0  0  0  0  0  0  0  0
   99.5220  107.2710  105.7940 C   0  0  0  0  0  0  0  0  0  0  0  0
  102.6980   99.6340  108.7140 C   0  0  0  0  0  0  0  0  0  0  0  0
  103.8860   98.6540  108.6400 C   0  0  0  0  0  0  0  0  0  0  0  0
  103.7500   97.5310  109.1790 O   0  0  0  0  0  0  0  0  0  0  0  0
  104.9230   99.0320  108.0470 O   0  0  0  0  0  0  0  0  0  0  0  0
  1 21  1  0  0  0  0
  2  1  1  0  0  0  0
  3  2  1  0  0  0  0
  4  6  2  0  0  0  0
  4  3  1  0  0  0  0
  5  2  2  0  0  0  0
  6  5  1  0  0  0  0
  7  4  1  0  0  0  0
  8  3  1  0  0  0  0
  8 13  1  0  0  0  0
  9 18  1  0  0  0  0
  9 11  1  0  0  0  0
 10  9  2  0  0  0  0
 11 13  2  0  0  0  0
 11 14  1  0  0  0  0
 12 10  1  0  0  0  0
 12  8  2  0  0  0  0
 13 15  1  0  0  0  0
 14 16  2  0  0  0  0
 15 17  2  0  0  0  0
 16 17  1  0  0  0  0
 18 20  1  0  0  0  0
 18 19  1  0  0  0  0
 20 19  1  0  0  0  0
 22 21  1  0  0  0  0
 22 23  1  0  0  0  0
 24 22  2  0  0  0  0
M  END
>  <minimizedAffinity>
-8.37210369

>  <CNNscore>
0.911598027

>  <CNNaffinity>
7.22862005

$$$$

 OpenBabel08262610393D

 24 27  0  0  0  0  0  0  0  0999 V2000
  103.0750  100.4630  107.9380 S   0  0  0  0  0  0  0  0  0  0  0  0
  102.0950   99.8500  106.6010 C   0  0  0  0  0  0  0  0  0  0  0  0
  101.0330  100.5280  106.0420 N   0  0  0  0  0  0  0  0  0  0  0  0
  100.5550   99.6620  105.0870 C   0  0  0  0  0  0  0  0  0  0  0  0
  102.2630   98.6920  106.0060 N   0  0  0  0  0  0  0  0  0  0  0  0
  101.2680   98.5660  105.0400 N   0  0  0  0  0  0  0  0  0  0  0  0
   99.0160  100.0410  104.0290 Br  0  0  0  0  0  0  0  0  0  0  0  0
  100.5450  101.7980  106.3910 C   0  0  0  0  0  0  0  0  0  0  0  0
   99.3700  104.2600  107.0680 C   0  0  0  0  0  0  0  0  0  0  0  0
   99.0580  103.1000  107.7750 C   0  0  0  0  0  0  0  0  0  0  0  0
  100.3180  104.2220  106.0000 C   0  0  0  0  0  0  0  0  0  0  0  0
   99.6430  101.8860  107.4480 C   0  0  0  0  0  0  0  0  0  0  0  0
  100.9140  102.9650  105.6550 C   0  0  0  0  0  0  0  0  0  0  0  0
  100.6980  105.3800  105.2610 C   0  0  0  0  0  0  0  0  0  0  0  0
  101.8530  102.9260  104.5850 C   0  0  0  0  0  0  0  0  0  0  0  0
  101.6380  105.2990  104.2400 C   0  0  0  0  0  0  0  0  0  0  0  0
  102.2030  104.0820  103.9000 C   0  0  0  0  0  0  0  0  0  0  0  0
   98.6520  105.5520  107.4280 C   0  0  0  0  0  0  0  0  0  0  0  0
   99.3550  106.8780  107.6150 C   0  0  0  0  0  0  0  0  0  0  0  0
   98.7740  106.1520  108.8030 C   0  0  0  0  0  0  0  0  0  0  0  0
  104.2750   99.0990  108.1100 C   0  0  0  0  0  0  0  0  0  0  0  0
  103.8230   98.3210  109.3610 C   0  0  0  0  0  0  0  0  0  0  0  0
  103.9050   97.0710  109.3320 O   0  0  0  0  0  0  0  0  0  0  0  0
  103.3950   98.9780  110.3380 O   0  0  0  0  0  0  0  0  0  0  0  0
  1 21  1  0  0  0  0
  2  1  1  0  0  0  0
  3  8  1  0  0  0  0
  3  2  1  0  0  0  0
  4  3  1  0  0  0  0
  5  2  2  0  0  0  0
  6  4  2  0  0  0  0
  6  5  1  0  0  0  0
  7  4  1  0  0  0  0
  8 12  1  0  0  0  0
  9 18  1  0  0  0  0
  9 10  1  0  0  0  0
 11  9  2  0  0  0  0
 12 10  2  0  0  0  0
 13 11  1  0  0  0  0
 13  8  2  0  0  0  0
 14 11  1  0  0  0  0
 15 13  1  0  0  0  0
 16 14  2  0  0  0  0
 17 16  1  0  0  0  0
 17 15  2  0  0  0  0
 18 19  1  0  0  0  0
 18 20  1  0  0  0  0
 19 20  1  0  0  0  0
 21 22  1  0  0  0  0
 22 24  1  0  0  0  0
 23 22  2  0  0  0  0
M  END
>  <minimizedAffinity>
-8.91694832

>  <CNNscore>
0.857067466

>  <CNNaffinity>
7.0681119

$$$$

 OpenBabel08262610393D

 24 27  0  0  0  0  0  0  0  0999 V2000
   96.6150  102.7940  104.1320 S   0  0  0  0  0  0  0  0  0  0  0  0
   96.7440  104.0210  105.3970 C   0  0  0  0  0  0  0  0  0  0  0  0
   97.8260  104.1560  106.2410 N   0  0  0  0  0  0  0  0  0  0  0  0
   97.4690  105.1900  107.0730 C   0  0  0  0  0  0  0  0  0  0  0  0
   95.8320  104.9220  105.6770 N   0  0  0  0  0  0  0  0  0  0  0  0
   96.2920  105.6680  106.7590 N   0  0  0  0  0  0  0  0  0  0  0  0
   98.5660  105.7790  108.5150 Br  0  0  0  0  0  0  0  0  0  0  0  0
   99.0060  103.3920  106.2540 C   0  0  0  0  0  0  0  0  0  0  0  0
  101.3590  101.8740  106.4950 C   0  0  0  0  0  0  0  0  0  0  0  0
  100.1830  101.4780  107.1300 C   0  0  0  0  0  0  0  0  0  0  0  0
  101.3800  103.0510  105.6840 C   0  0  0  0  0  0  0  0  0  0  0  0
   99.0190  102.2210  107.0050 C   0  0  0  0  0  0  0  0  0  0  0  0
  100.1800  103.8240  105.5640 C   0  0  0  0  0  0  0  0  0  0  0  0
  102.5440  103.4890  104.9880 C   0  0  0  0  0  0  0  0  0  0  0  0
  100.2030  105.0000  104.7630 C   0  0  0  0  0  0  0  0  0  0  0  0
  102.5140  104.6320  104.1950 C   0  0  0  0  0  0  0  0  0  0  0  0
  101.3560  105.3840  104.0910 C   0  0  0  0  0  0  0  0  0  0  0  0
  102.6230  101.0580  106.7170 C   0  0  0  0  0  0  0  0  0  0  0  0
  102.6270   99.5620  106.9440 C   0  0  0  0  0  0  0  0  0  0  0  0
  102.9620  100.5030  108.0740 C   0  0  0  0  0  0  0  0  0  0  0  0
   94.9310  103.1400  103.5180 C   0  0  0  0  0  0  0  0  0  0  0  0
   95.1350  103.8720  102.1770 C   0  0  0  0  0  0  0  0  0  0  0  0
   95.2050  103.1770  101.1380 O   0  0  0  0  0  0  0  0  0  0  0  0
   95.2210  105.1220  102.1980 O   0  0  0  0  0  0  0  0  0  0  0  0
  1  2  1  0  0  0  0
  2  5  2  0  0  0  0
  2  3  1  0  0  0  0
  3  8  1  0  0  0  0
  3  4  1  0  0  0  0
  4  7  1  0  0  0  0
  5  6  1  0  0  0  0
  6  4  2  0  0  0  0
  8 12  1  0  0  0  0
  9 18  1  0  0  0  0
  9 10  1  0  0  0  0
 11  9  2  0  0  0  0
 12 10  2  0  0  0  0
 13 11  1  0  0  0  0
 13  8  2  0  0  0  0
 14 11  1  0  0  0  0
 15 13  1  0  0  0  0
 16 14  2  0  0  0  0
 17 16  1  0  0  0  0
 17 15  2  0  0  0  0
 18 19  1  0  0  0  0
 18 20  1  0  0  0  0
 19 20  1  0  0  0  0
 21  1  1  0  0  0  0
 22 24  1  0  0  0  0
 22 21  1  0  0  0  0
 23 22  2  0  0  0  0
M  END
>  <minimizedAffinity>
-8.71770096

>  <CNNscore>
0.68801719

>  <CNNaffinity>
6.69011068

$$$$

 OpenBabel08262610393D

 24 27  0  0  0  0  0  0  0  0999 V2000
  102.2810   99.8350  106.1890 S   0  0  0  0  0  0  0  0  0  0  0  0
  100.8600   99.6050  105.1630 C   0  0  0  0  0  0  0  0  0  0  0  0
   99.8730  100.5490  104.9810 N   0  0  0  0  0  0  0  0  0  0  0  0
   98.9660   99.9240  104.1580 C   0  0  0  0  0  0  0  0  0  0  0  0
  100.5860   98.5190  104.4780 N   0  0  0  0  0  0  0  0  0  0  0  0
   99.3660   98.7190  103.8400 N   0  0  0  0  0  0  0  0  0  0  0  0
   97.3290  100.7370  103.6220 Br  0  0  0  0  0  0  0  0  0  0  0  0
   99.8070  101.8400  105.5320 C   0  0  0  0  0  0  0  0  0  0  0  0
   99.4610  104.4170  106.5990 C   0  0  0  0  0  0  0  0  0  0  0  0
   98.7420  103.3330  107.0990 C   0  0  0  0  0  0  0  0  0  0  0  0
  100.4110  104.2300  105.5480 C   0  0  0  0  0  0  0  0  0  0  0  0
   98.9170  102.0590  106.5800 C   0  0  0  0  0  0  0  0  0  0  0  0
  100.5840  102.9160  105.0030 C   0  0  0  0  0  0  0  0  0  0  0  0
  101.1960  105.2940  105.0150 C   0  0  0  0  0  0  0  0  0  0  0  0
  101.5240  102.7300  103.9510 C   0  0  0  0  0  0  0  0  0  0  0  0
  102.1210  105.0630  104.0040 C   0  0  0  0  0  0  0  0  0  0  0  0
  102.2770  103.7940  103.4710 C   0  0  0  0  0  0  0  0  0  0  0  0
   99.1840  105.8030  107.1620 C   0  0  0  0  0  0  0  0  0  0  0  0
   99.2750  106.1450  108.6320 C   0  0  0  0  0  0  0  0  0  0  0  0
   97.9320  106.0870  107.9470 C   0  0  0  0  0  0  0  0  0  0  0  0
  101.4960  100.5530  107.6710 C   0  0  0  0  0  0  0  0  0  0  0  0
  102.3020  101.8320  107.9740 C   0  0  0  0  0  0  0  0  0  0  0  0
  101.8130  102.6520  108.7850 O   0  0  0  0  0  0  0  0  0  0  0  0
  103.4020  101.9840  107.3920 O   0  0  0  0  0  0  0  0  0  0  0  0
  1 21  1  0  0  0  0
  2  1  1  0  0  0  0
  3  2  1  0  0  0  0
  3  8  1  0  0  0  0
  4  3  1  0  0  0  0
  5  2  2  0  0  0  0
  6  4  2  0  0  0  0
  6  5  1  0  0  0  0
  7  4  1  0  0  0  0
  8 12  1  0  0  0  0
  9 10  1  0  0  0  0
  9 18  1  0  0  0  0
 11  9  2  0  0  0  0
 12 10  2  0  0  0  0
 13  8  2  0  0  0  0
 13 11  1  0  0  0  0
 14 11  1  0  0  0  0
 15 13  1  0  0  0  0
 16 14  2  0  0  0  0
 17 15  2  0  0  0  0
 17 16  1  0  0  0  0
 18 20  1  0  0  0  0
 18 19  1  0  0  0  0
 20 19  1  0  0  0  0
 21 22  1  0  0  0  0
 22 23  1  0  0  0  0
 24 22  2  0  0  0  0
M  END
>  <minimizedAffinity>
-7.12102699

>  <CNNscore>
0.649874091

>  <CNNaffinity>
6.75194979

$$$$

 OpenBabel08262610393D

 24 27  0  0  0  0  0  0  0  0999 V2000
  102.1790  104.1180  104.2980 S   0  0  0  0  0  0  0  0  0  0  0  0
  100.7870  104.3200  105.3680 C   0  0  0  0  0  0  0  0  0  0  0  0
  100.3990  103.4020  106.3210 N   0  0  0  0  0  0  0  0  0  0  0  0
   99.2630  103.9520  106.8660 C   0  0  0  0  0  0  0  0  0  0  0  0
   99.9730  105.3500  105.3680 N   0  0  0  0  0  0  0  0  0  0  0  0
   98.9890  105.1110  106.3230 N   0  0  0  0  0  0  0  0  0  0  0  0
   98.2320  103.0710  108.2040 Br  0  0  0  0  0  0  0  0  0  0  0  0
  101.0160  102.1800  106.6360 C   0  0  0  0  0  0  0  0  0  0  0  0
  102.4350   99.8430  107.2880 C   0  0  0  0  0  0  0  0  0  0  0  0
  102.4580  100.9520  108.1310 C   0  0  0  0  0  0  0  0  0  0  0  0
  101.6640   99.8660  106.0850 C   0  0  0  0  0  0  0  0  0  0  0  0
  101.7510  102.1030  107.8160 C   0  0  0  0  0  0  0  0  0  0  0  0
  100.9430  101.0600  105.7530 C   0  0  0  0  0  0  0  0  0  0  0  0
  101.5800   98.7530  105.1980 C   0  0  0  0  0  0  0  0  0  0  0  0
  100.1820  101.0860  104.5510 C   0  0  0  0  0  0  0  0  0  0  0  0
  100.8030   98.8150  104.0470 C   0  0  0  0  0  0  0  0  0  0  0  0
  100.1180   99.9730  103.7220 C   0  0  0  0  0  0  0  0  0  0  0  0
  103.2780   98.6300  107.6500 C   0  0  0  0  0  0  0  0  0  0  0  0
  103.5400   98.1840  109.0710 C   0  0  0  0  0  0  0  0  0  0  0  0
  104.6510   98.7870  108.2470 C   0  0  0  0  0  0  0  0  0  0  0  0
  102.5670  105.8650  103.9400 C   0  0  0  0  0  0  0  0  0  0  0  0
  103.3530  105.8390  102.6140 C   0  0  0  0  0  0  0  0  0  0  0  0
  103.3930  104.7580  101.9810 O   0  0  0  0  0  0  0  0  0  0  0  0
  103.9120  106.8970  102.2420 O   0  0  0  0  0  0  0  0  0  0  0  0
  1  2  1  0  0  0  0
  2  5  2  0  0  0  0
  2  3  1  0  0  0  0
  3  8  1  0  0  0  0
  3  4  1  0  0  0  0
  4  7  1  0  0  0  0
  5  6  1  0  0  0  0
  6  4  2  0  0  0  0
  8 12  1  0  0  0  0
  9 18  1  0  0  0  0
  9 10  1  0  0  0  0
 11  9  2  0  0  0  0
 12 10  2  0  0  0  0
 13 11  1  0  0  0  0
 13  8  2  0  0  0  0
 14 11  1  0  0  0  0
 15 13  1  0  0  0  0
 16 14  2  0  0  0  0
 17 16  1  0  0  0  0
 17 15  2  0  0  0  0
 18 20  1  0  0  0  0
 18 19  1  0  0  0  0
 20 19  1  0  0  0  0
 21  1  1  0  0  0  0
 22 21  1  0  0  0  0
 23 22  2  0  0  0  0
 24 22  1  0  0  0  0
M  END
>  <minimizedAffinity>
-8.24126148

>  <CNNscore>
0.605043769

>  <CNNaffinity>
6.66033554

$$$$

 OpenBabel08262610393D

 24 27  0  0  0  0  0  0  0  0999 V2000
   97.5340  103.3860  108.1420 S   0  0  0  0  0  0  0  0  0  0  0  0
   98.1780  104.9550  107.6440 C   0  0  0  0  0  0  0  0  0  0  0  0
   99.0600  105.1360  106.6010 N   0  0  0  0  0  0  0  0  0  0  0  0
   99.3140  106.4880  106.6150 C   0  0  0  0  0  0  0  0  0  0  0  0
   97.8970  106.1050  108.2110 N   0  0  0  0  0  0  0  0  0  0  0  0
   98.6330  107.0890  107.5570 N   0  0  0  0  0  0  0  0  0  0  0  0
  100.5460  107.3180  105.4220 Br  0  0  0  0  0  0  0  0  0  0  0  0
   99.5910  104.1570  105.7450 C   0  0  0  0  0  0  0  0  0  0  0  0
  100.6590  102.0660  104.2010 C   0  0  0  0  0  0  0  0  0  0  0  0
   99.4910  101.8850  104.9390 C   0  0  0  0  0  0  0  0  0  0  0  0
  101.3210  103.3320  104.1950 C   0  0  0  0  0  0  0  0  0  0  0  0
   98.9580  102.9190  105.6940 C   0  0  0  0  0  0  0  0  0  0  0  0
  100.7760  104.3960  104.9850 C   0  0  0  0  0  0  0  0  0  0  0  0
  102.5020  103.5850  103.4370 C   0  0  0  0  0  0  0  0  0  0  0  0
  101.4400  105.6560  104.9850 C   0  0  0  0  0  0  0  0  0  0  0  0
  103.1030  104.8380  103.4480 C   0  0  0  0  0  0  0  0  0  0  0  0
  102.5820  105.8610  104.2220 C   0  0  0  0  0  0  0  0  0  0  0  0
  101.2360  100.8820  103.4400 C   0  0  0  0  0  0  0  0  0  0  0  0
  100.7530  100.4460  102.0740 C   0  0  0  0  0  0  0  0  0  0  0  0
  100.4570   99.6020  103.2880 C   0  0  0  0  0  0  0  0  0  0  0  0
   95.7430  103.7320  108.0620 C   0  0  0  0  0  0  0  0  0  0  0  0
   95.4210  103.8350  106.5580 C   0  0  0  0  0  0  0  0  0  0  0  0
   95.5830  102.8100  105.8560 O   0  0  0  0  0  0  0  0  0  0  0  0
   95.0160  104.9360  106.1180 O   0  0  0  0  0  0  0  0  0  0  0  0
  2  1  1  0  0  0  0
  2  5  2  0  0  0  0
  3  4  1  0  0  0  0
  3  2  1  0  0  0  0
  4  6  2  0  0  0  0
  6  5  1  0  0  0  0
  7  4  1  0  0  0  0
  8  3  1  0  0  0  0
  9 10  1  0  0  0  0
 10 12  2  0  0  0  0
 11  9  2  0  0  0  0
 11 13  1  0  0  0  0
 12  8  1  0  0  0  0
 13 15  1  0  0  0  0
 13  8  2  0  0  0  0
 14 16  2  0  0  0  0
 14 11  1  0  0  0  0
 16 17  1  0  0  0  0
 17 15  2  0  0  0  0
 18  9  1  0  0  0  0
 19 20  1  0  0  0  0
 19 18  1  0  0  0  0
 20 18  1  0  0  0  0
 21  1  1  0  0  0  0
 22 21  1  0  0  0  0
 23 22  2  0  0  0  0
 24 22  1  0  0  0  0
M  END
>  <minimizedAffinity>
-6.93717241

>  <CNNscore>
0.576062441

>  <CNNaffinity>
6.62828112

$$$$

 OpenBabel08262610393D

 24 27  0  0  0  0  0  0  0  0999 V2000
   98.1280  104.0730  107.2660 S   0  0  0  0  0  0  0  0  0  0  0  0
   99.2820  104.6730  106.0690 C   0  0  0  0  0  0  0  0  0  0  0  0
  100.4320  104.0090  105.6980 N   0  0  0  0  0  0  0  0  0  0  0  0
  101.0270  104.8590  104.7960 C   0  0  0  0  0  0  0  0  0  0  0  0
   99.1790  105.8080  105.4180 N   0  0  0  0  0  0  0  0  0  0  0  0
  100.3040  105.9330  104.6060 N   0  0  0  0  0  0  0  0  0  0  0  0
  102.7150  104.4910  103.9930 Br  0  0  0  0  0  0  0  0  0  0  0  0
  100.8910  102.7630  106.1580 C   0  0  0  0  0  0  0  0  0  0  0  0
  101.9970  100.3680  107.1280 C   0  0  0  0  0  0  0  0  0  0  0  0
  101.9530  101.5100  107.9250 C   0  0  0  0  0  0  0  0  0  0  0  0
  101.4520  100.3880  105.8070 C   0  0  0  0  0  0  0  0  0  0  0  0
  101.4010  102.6910  107.4520 C   0  0  0  0  0  0  0  0  0  0  0  0
  100.8910  101.6110  105.3140 C   0  0  0  0  0  0  0  0  0  0  0  0
  101.4410   99.2440  104.9560 C   0  0  0  0  0  0  0  0  0  0  0  0
  100.3550  101.6340  103.9950 C   0  0  0  0  0  0  0  0  0  0  0  0
  100.8850   99.3060  103.6840 C   0  0  0  0  0  0  0  0  0  0  0  0
  100.3540  100.4920  103.2050 C   0  0  0  0  0  0  0  0  0  0  0  0
  102.6700   99.1180  107.6730 C   0  0  0  0  0  0  0  0  0  0  0  0
  103.0790   98.9490  109.1200 C   0  0  0  0  0  0  0  0  0  0  0  0
  104.1280   99.1230  108.0500 C   0  0  0  0  0  0  0  0  0  0  0  0
   96.8400  105.3610  107.1450 C   0  0  0  0  0  0  0  0  0  0  0  0
   95.5690  104.6170  106.6910 C   0  0  0  0  0  0  0  0  0  0  0  0
   95.2660  104.6660  105.4760 O   0  0  0  0  0  0  0  0  0  0  0  0
   94.9050  104.0060  107.5600 O   0  0  0  0  0  0  0  0  0  0  0  0
  2  1  1  0  0  0  0
  3  2  1  0  0  0  0
  3  8  1  0  0  0  0
  4  3  1  0  0  0  0
  5  2  2  0  0  0  0
  6  4  2  0  0  0  0
  6  5  1  0  0  0  0
  7  4  1  0  0  0  0
  8 12  1  0  0  0  0
  9 18  1  0  0  0  0
  9 10  1  0  0  0  0
 11  9  2  0  0  0  0
 12 10  2  0  0  0  0
 13 11  1  0  0  0  0
 13  8  2  0  0  0  0
 14 11  1  0  0  0  0
 15 13  1  0  0  0  0
 16 14  2  0  0  0  0
 17 16  1  0  0  0  0
 17 15  2  0  0  0  0
 18 20  1  0  0  0  0
 18 19  1  0  0  0  0
 20 19  1  0  0  0  0
 21  1  1  0  0  0  0
 22 21  1  0  0  0  0
 22 24  1  0  0  0  0
 23 22  2  0  0  0  0
M  END
>  <minimizedAffinity>
-8.85318279

>  <CNNscore>
0.572782695

>  <CNNaffinity>
6.42846155

$$$$

 OpenBabel08262610393D

 24 27  0  0  0  0  0  0  0  0999 V2000
   96.9470  100.5460  104.9710 S   0  0  0  0  0  0  0  0  0  0  0  0
   97.8990  100.2680  103.5080 C   0  0  0  0  0  0  0  0  0  0  0  0
   99.2730  100.1640  103.4840 N   0  0  0  0  0  0  0  0  0  0  0  0
   99.5680  100.0010  102.1510 C   0  0  0  0  0  0  0  0  0  0  0  0
   97.4090  100.1400  102.2970 N   0  0  0  0  0  0  0  0  0  0  0  0
   98.4810   99.9770  101.4230 N   0  0  0  0  0  0  0  0  0  0  0  0
  101.3540   99.8770  101.4980 Br  0  0  0  0  0  0  0  0  0  0  0  0
  100.1590  100.2350  104.5720 C   0  0  0  0  0  0  0  0  0  0  0  0
  101.8300  100.2050  106.8320 C   0  0  0  0  0  0  0  0  0  0  0  0
  101.6950   99.0750  106.0270 C   0  0  0  0  0  0  0  0  0  0  0  0
  101.1400  101.4120  106.5030 C   0  0  0  0  0  0  0  0  0  0  0  0
  100.8770   99.0900  104.9070 C   0  0  0  0  0  0  0  0  0  0  0  0
  100.2860  101.4240  105.3520 C   0  0  0  0  0  0  0  0  0  0  0  0
  101.2620  102.6070  107.2710 C   0  0  0  0  0  0  0  0  0  0  0  0
   99.5920  102.6240  105.0300 C   0  0  0  0  0  0  0  0  0  0  0  0
  100.5840  103.7640  106.9050 C   0  0  0  0  0  0  0  0  0  0  0  0
   99.7500  103.7700  105.7990 C   0  0  0  0  0  0  0  0  0  0  0  0
  102.6900  100.1140  108.0830 C   0  0  0  0  0  0  0  0  0  0  0  0
  103.9130   99.2320  108.1990 C   0  0  0  0  0  0  0  0  0  0  0  0
  102.6570   98.8930  108.9620 C   0  0  0  0  0  0  0  0  0  0  0  0
   95.7120  101.7290  104.3310 C   0  0  0  0  0  0  0  0  0  0  0  0
   95.7590  102.9240  105.3040 C   0  0  0  0  0  0  0  0  0  0  0  0
   96.2450  102.7300  106.4430 O   0  0  0  0  0  0  0  0  0  0  0  0
   95.3090  104.0230  104.9050 O   0  0  0  0  0  0  0  0  0  0  0  0
  2  1  1  0  0  0  0
  3  2  1  0  0  0  0
  3  8  1  0  0  0  0
  4  3  1  0  0  0  0
  5  2  2  0  0  0  0
  6  4  2  0  0  0  0
  6  5  1  0  0  0  0
  7  4  1  0  0  0  0
  8 12  2  0  0  0  0
  8 13  1  0  0  0  0
  9 18  1  0  0  0  0
 10  9  2  0  0  0  0
 11  9  1  0  0  0  0
 11 14  1  0  0  0  0
 12 10  1  0  0  0  0
 13 11  2  0  0  0  0
 15 13  1  0  0  0  0
 15 17  2  0  0  0  0
 16 14  2  0  0  0  0
 17 16  1  0  0  0  0
 18 19  1  0  0  0  0
 18 20  1  0  0  0  0
 19 20  1  0  0  0  0
 21  1  1  0  0  0  0
 21 22  1  0  0  0  0
 22 23  1  0  0  0  0
 24 22  2  0  0  0  0
M  END
>  <minimizedAffinity>
-7.40032673

>  <CNNscore>
0.563612103

>  <CNNaffinity>
6.40748978

$$$$

 OpenBabel08262610393D

 24 27  0  0  0  0  0  0  0  0999 V2000
  102.2510  100.5180  107.5390 S   0  0  0  0  0  0  0  0  0  0  0  0
  101.4750   99.9130  106.0700 C   0  0  0  0  0  0  0  0  0  0  0  0
  100.5750  100.6330  105.3140 N   0  0  0  0  0  0  0  0  0  0  0  0
  100.2090   99.7610  104.3160 C   0  0  0  0  0  0  0  0  0  0  0  0
  101.6610   98.7240  105.5480 N   0  0  0  0  0  0  0  0  0  0  0  0
  100.8420   98.6210  104.4270 N   0  0  0  0  0  0  0  0  0  0  0  0
   98.9060  100.1930  102.9950 Br  0  0  0  0  0  0  0  0  0  0  0  0
  100.1240  101.9450  105.5350 C   0  0  0  0  0  0  0  0  0  0  0  0
   99.3680  104.5850  106.1340 C   0  0  0  0  0  0  0  0  0  0  0  0
  100.6910  104.2720  105.8260 C   0  0  0  0  0  0  0  0  0  0  0  0
   98.3640  103.5690  106.1220 C   0  0  0  0  0  0  0  0  0  0  0  0
  101.0640  102.9720  105.5220 C   0  0  0  0  0  0  0  0  0  0  0  0
   98.7520  102.2230  105.8190 C   0  0  0  0  0  0  0  0  0  0  0  0
   96.9910  103.8340  106.4000 C   0  0  0  0  0  0  0  0  0  0  0  0
   97.7530  101.2090  105.8160 C   0  0  0  0  0  0  0  0  0  0  0  0
   96.0450  102.8160  106.3610 C   0  0  0  0  0  0  0  0  0  0  0  0
   96.4240  101.5150  106.0800 C   0  0  0  0  0  0  0  0  0  0  0  0
   99.0250  106.0160  106.5210 C   0  0  0  0  0  0  0  0  0  0  0  0
   98.5710  107.0670  105.5330 C   0  0  0  0  0  0  0  0  0  0  0  0
   99.9380  107.1580  106.1650 C   0  0  0  0  0  0  0  0  0  0  0  0
  101.7460   99.2260  108.7250 C   0  0  0  0  0  0  0  0  0  0  0  0
  102.9660   98.2910  108.8440 C   0  0  0  0  0  0  0  0  0  0  0  0
  102.8300   97.2360  109.5060 O   0  0  0  0  0  0  0  0  0  0  0  0
  104.0270   98.6360  108.2750 O   0  0  0  0  0  0  0  0  0  0  0  0
  1 21  1  0  0  0  0
  2  1  1  0  0  0  0
  3  8  1  0  0  0  0
  3  2  1  0  0  0  0
  4  6  2  0  0  0  0
  4  3  1  0  0  0  0
  5  2  2  0  0  0  0
  6  5  1  0  0  0  0
  7  4  1  0  0  0  0
  8 13  1  0  0  0  0
  9 18  1  0  0  0  0
 10  9  2  0  0  0  0
 11  9  1  0  0  0  0
 11 14  1  0  0  0  0
 12  8  2  0  0  0  0
 12 10  1  0  0  0  0
 13 11  2  0  0  0  0
 15 13  1  0  0  0  0
 15 17  2  0  0  0  0
 16 14  2  0  0  0  0
 17 16  1  0  0  0  0
 19 20  1  0  0  0  0
 19 18  1  0  0  0  0
 20 18  1  0  0  0  0
 21 22  1  0  0  0  0
 22 23  1  0  0  0  0
 24 22  2  0  0  0  0
M  END
>  <minimizedAffinity>
-6.12015295

>  <CNNscore>
0.55858016

>  <CNNaffinity>
6.71305132

$$$$
