AHSFPZHWAFXABZ-GNZBLXBPSA-N
     RDKit          3D

 46 49  0  0  0  0  0  0  0  0999 V2000
   42.9690  -40.1280   98.9020 O   0  0  0  0  0  0  0  0  0  0  0  0
   42.9360  -40.3030  100.1200 C   0  0  0  0  0  0  0  0  0  0  0  0
   43.2730  -41.6500  100.7400 C   0  0  0  0  0  0  0  0  0  0  0  0
   44.3190  -41.5540  101.8540 C   0  0  0  0  0  0  0  0  0  0  0  0
   43.7470  -41.7970  103.2570 C   0  0  0  0  0  0  0  0  0  0  0  0
   42.8320  -40.6770  103.7610 C   0  0  0  0  0  0  0  0  0  0  0  0
   43.2990  -40.1260  105.0870 C   0  0  0  0  0  0  0  0  0  0  0  0
   43.9450  -40.9460  106.0220 C   0  0  0  0  0  0  0  0  0  0  0  0
   44.3730  -40.4260  107.2490 C   0  0  0  0  0  0  0  0  0  0  0  0
   44.1740  -39.0770  107.5360 C   0  0  0  0  0  0  0  0  0  0  0  0
   44.5440  -38.4650  108.7050 O   0  0  0  0  0  0  0  0  0  0  0  0
   45.9460  -38.1880  108.8260 C   0  0  2  0  0  0  0  0  0  0  0  0
   46.2930  -37.1960  107.8470 O   0  0  0  0  0  0  0  0  0  0  0  0
   47.6920  -36.8620  107.8560 C   0  0  2  0  0  0  0  0  0  0  0  0
   47.9140  -35.7370  106.8340 C   0  0  0  0  0  0  0  0  0  0  0  0
   48.5120  -34.6140  107.4910 O   0  0  0  0  0  0  0  0  0  0  0  0
   48.5430  -38.0920  107.5170 C   0  0  1  0  0  0  0  0  0  0  0  0
   49.9340  -37.7860  107.5900 O   0  0  0  0  0  0  0  0  0  0  0  0
   48.2120  -39.2180  108.4990 C   0  0  2  0  0  0  0  0  0  0  0  0
   48.9350  -40.4100  108.1410 O   0  0  0  0  0  0  0  0  0  0  0  0
   46.7090  -39.5020  108.5490 C   0  0  1  0  0  0  0  0  0  0  0  0
   46.4490  -40.4940  109.5540 O   0  0  0  0  0  0  0  0  0  0  0  0
   43.5010  -38.2720  106.6200 C   0  0  0  0  0  0  0  0  0  0  0  0
   43.2620  -36.9540  106.8910 O   0  0  0  0  0  0  0  0  0  0  0  0
   43.0710  -38.7790  105.4020 C   0  0  0  0  0  0  0  0  0  0  0  0
   42.5510  -39.1610  101.0450 C   0  0  0  0  0  0  0  0  0  0  0  0
   41.2810  -38.4210  100.6320 C   0  0  0  0  0  0  0  0  0  0  0  0
   40.1200  -38.3950  101.6020 C   0  0  0  0  0  0  0  0  0  0  0  0
   40.1270  -39.0320  102.8550 C   0  0  0  0  0  0  0  0  0  0  0  0
   39.0120  -38.9590  103.7040 C   0  0  0  0  0  0  0  0  0  0  0  0
   37.8910  -38.2310  103.3230 C   0  0  0  0  0  0  0  0  0  0  0  0
   36.7530  -38.0900  104.0680 O   0  0  0  0  0  0  0  0  0  0  0  0
   36.9000  -37.3570  105.2960 C   0  0  2  0  0  0  0  0  0  0  0  0
   36.3160  -38.0970  106.3690 O   0  0  0  0  0  0  0  0  0  0  0  0
   36.3720  -37.3920  107.6150 C   0  0  2  0  0  0  0  0  0  0  0  0
   35.8260  -38.2990  108.7250 C   0  0  0  0  0  0  0  0  0  0  0  0
   35.9840  -37.7080  110.0120 O   0  0  0  0  0  0  0  0  0  0  0  0
   35.5660  -36.0850  107.5230 C   0  0  1  0  0  0  0  0  0  0  0  0
   35.6280  -35.3470  108.7470 O   0  0  0  0  0  0  0  0  0  0  0  0
   36.1160  -35.2310  106.3820 C   0  0  2  0  0  0  0  0  0  0  0  0
   35.2950  -34.0640  106.2290 O   0  0  0  0  0  0  0  0  0  0  0  0
   36.1510  -36.0270  105.0820 C   0  0  1  0  0  0  0  0  0  0  0  0
   36.7760  -35.2090  104.0800 O   0  0  0  0  0  0  0  0  0  0  0  0
   37.8760  -37.6140  102.0720 C   0  0  0  0  0  0  0  0  0  0  0  0
   36.7640  -36.9390  101.6420 O   0  0  0  0  0  0  0  0  0  0  0  0
   38.9780  -37.6670  101.2310 C   0  0  0  0  0  0  0  0  0  0  0  0
  1  2  2  0
  2  3  1  0
  3  4  1  0
  4  5  1  0
  5  6  1  0
  6  7  1  0
  7  8  2  0
  8  9  1  0
  9 10  2  0
 10 11  1  0
 12 11  1  6
 12 13  1  0
 13 14  1  0
 14 15  1  6
 15 16  1  0
 14 17  1  0
 17 18  1  1
 17 19  1  0
 19 20  1  6
 19 21  1  0
 21 22  1  1
 10 23  1  0
 23 24  1  0
 23 25  2  0
  2 26  1  0
 26 27  1  0
 27 28  1  0
 28 29  2  0
 29 30  1  0
 30 31  2  0
 31 32  1  0
 33 32  1  6
 33 34  1  0
 34 35  1  0
 35 36  1  1
 36 37  1  0
 35 38  1  0
 38 39  1  1
 38 40  1  0
 40 41  1  6
 40 42  1  0
 42 43  1  6
 31 44  1  0
 44 45  1  0
 44 46  2  0
 25  7  1  0
 46 28  1  0
 21 12  1  0
 42 33  1  0
M  END
$$$$
