
 OpenBabel07312614123D

 33 35  0  0  0  0  0  0  0  0999 V2000
   99.7420  101.1840  104.8000 C   0  0  0  0  0  0  0  0  0  0  0  0
   99.2120  102.1980  105.4980 N   0  0  0  0  0  0  0  0  0  0  0  0
   98.0660  102.4960  104.8360 N   0  0  0  0  0  0  0  0  0  0  0  0
   97.8730  101.7190  103.7240 C   0  0  0  0  0  0  0  0  0  0  0  0
   96.8510  101.7720  102.8540 N   0  0  0  0  0  0  0  0  0  0  0  0
   96.9500  100.8520  101.8860 C   0  0  0  0  0  0  0  0  0  0  0  0
   97.9060   99.9230  101.7620 N   0  0  0  0  0  0  0  0  0  0  0  0
   98.9200   99.9110  102.6570 C   0  0  0  0  0  0  0  0  0  0  0  0
   98.9360  100.8390  103.6880 C   0  0  0  0  0  0  0  0  0  0  0  0
  100.9630  100.5480  105.1900 C   0  0  0  0  0  3  0  0  0  0  0  0
  101.1600   99.7390  106.2530 C   0  0  0  0  0  3  0  0  0  0  0  0
  102.5280   99.1490  106.5140 C   0  0  0  0  0  2  0  0  0  0  0  0
  102.5540   98.4640  107.8770 C   0  0  0  0  0  0  0  0  0  0  0  0
  103.0460   99.2520  108.8990 N   0  0  0  0  0  0  0  0  0  0  0  0
  102.1790   97.3060  108.0380 O   0  0  0  0  0  0  0  0  0  0  0  0
  103.2380   98.7040  110.2190 C   0  0  0  0  0  1  0  0  0  0  0  0
  103.5670  100.0840  108.6560 H   0  0  0  0  0  0  0  0  0  0  0  0
   97.2150  103.5950  105.2670 C   0  0  0  0  0  2  0  0  0  0  0  0
   97.9930  104.8150  105.7030 C   0  0  0  0  0  0  0  0  0  0  0  0
   98.6070  105.4870  104.6910 N   0  0  0  0  0  0  0  0  0  0  0  0
   98.0530  105.2570  107.0340 C   0  0  0  0  0  0  0  0  0  0  0  0
   99.3630  106.5620  104.9990 C   0  0  0  0  0  3  0  0  0  0  0  0
   98.8190  106.4080  107.2940 C   0  0  0  0  0  0  0  0  0  0  0  0
   99.5310  107.0530  106.2810 C   0  0  0  0  0  0  0  0  0  0  0  0
   97.3780  104.5130  108.1520 C   0  0  0  0  0  1  0  0  0  0  0  0
  100.4050  108.2410  106.5270 C   0  0  0  0  0  1  0  0  0  0  0  0
   98.9350  106.8640  108.5860 O   0  0  0  0  0  0  0  0  0  0  0  0
   99.4300  105.8290  109.4380 C   0  0  0  0  0  1  0  0  0  0  0  0
  100.1610   98.6660  102.5230 S   0  0  0  0  0  0  0  0  0  0  0  0
  101.3250   99.5110  101.4120 C   0  0  0  0  0  1  0  0  0  0  0  0
   95.9380  100.8210  100.9480 N   0  0  0  0  0  0  0  0  0  0  0  0
   95.8890   99.9010  100.5300 H   0  0  0  0  0  0  0  0  0  0  0  0
   95.0870  101.2090  101.3250 H   0  0  0  0  0  0  0  0  0  0  0  0
  1 10  1  0  0  0  0
  1  2  2  0  0  0  0
  3 18  1  0  0  0  0
  3  2  1  0  0  0  0
  4  3  1  0  0  0  0
  5  4  1  0  0  0  0
  6  5  2  0  0  0  0
  7  6  1  0  0  0  0
  7  8  2  0  0  0  0
  8  9  1  0  0  0  0
  9  4  2  0  0  0  0
  9  1  1  0  0  0  0
 10 11  2  0  0  0  0
 11 12  1  0  0  0  0
 12 13  1  0  0  0  0
 13 15  2  0  0  0  0
 13 14  1  0  0  0  0
 14 16  1  0  0  0  0
 17 14  1  0  0  0  0
 18 19  1  0  0  0  0
 19 21  1  0  0  0  0
 20 22  1  0  0  0  0
 20 19  2  0  0  0  0
 21 23  2  0  0  0  0
 21 25  1  0  0  0  0
 22 24  2  0  0  0  0
 23 27  1  0  0  0  0
 24 26  1  0  0  0  0
 24 23  1  0  0  0  0
 27 28  1  0  0  0  0
 29  8  1  0  0  0  0
 30 29  1  0  0  0  0
 31 33  1  0  0  0  0
 31  6  1  0  0  0  0
 32 31  1  0  0  0  0
M  END
>  <minimizedAffinity>
-8.22045135

>  <CNNscore>
0.564864099

>  <CNNaffinity>
7.63537836

$$$$
