
 OpenBabel07302620223D

 45 49  0  0  1  0  0  0  0  0999 V2000
   99.2740  100.4660  103.5520 C   0  0  0  0  0  0  0  0  0  0  0  0
   97.9470  100.5680  103.9700 C   0  0  0  0  0  0  0  0  0  0  0  0
   96.8770  100.4570  103.0500 C   0  0  0  0  0  0  0  0  0  0  0  0
   95.5070  100.5670  103.4200 C   0  0  0  0  0  0  0  0  0  0  0  0
   94.5190  100.4300  102.4330 C   0  0  0  0  0  0  0  0  0  0  0  0
   93.1230  100.5250  102.7200 C   0  0  0  0  0  0  0  0  0  0  0  0
   91.9900  100.5770  102.9650 N   0  0  0  0  0  0  0  0  0  0  0  0
   94.9260  100.1880  101.1350 C   0  0  0  0  0  0  0  0  0  0  0  0
   96.2190  100.0860  100.7540 N   0  0  0  0  0  0  0  0  0  0  0  0
   97.1710  100.2200  101.6900 C   0  0  0  0  0  0  0  0  0  0  0  0
   98.4950  100.1260  101.2870 C   0  0  0  0  0  0  0  0  0  0  0  0
   99.5470  100.2430  102.1940 C   0  0  0  0  0  0  0  0  0  0  0  0
  100.3810  100.5770  104.4200 N   0  0  0  0  0  0  0  0  0  0  0  0
  101.1560   99.5630  104.9330 C   0  0  0  0  0  0  0  0  0  0  0  0
  101.0660   98.3640  104.7100 O   0  0  0  0  0  0  0  0  0  0  0  0
  100.6710  101.5340  104.5930 H   0  0  0  0  0  0  0  0  0  0  0  0
  102.2160  100.0980  105.8250 C   0  0  0  0  0  0  0  0  0  0  0  0
  102.3700   99.6030  107.0640 C   0  0  0  0  0  0  0  0  0  0  0  0
  103.3730  100.1250  108.0520 C   0  0  0  0  0  0  0  0  0  0  0  0
  104.1490   99.1120  108.7740 N   0  0  0  0  0  0  0  0  0  0  0  0
  103.4210   98.5100  109.8880 C   0  0  0  0  0  0  0  0  0  0  0  0
  104.7140   98.0930  107.8940 C   0  0  0  0  0  0  0  0  0  0  0  0
  100.8790  100.1750  101.8570 O   0  0  0  0  0  0  0  0  0  0  0  0
  101.2100   99.8190  100.5200 C   0  0  1  0  0  0  0  0  0  0  0  0
  100.0530   99.9900   99.5590 C   0  0  0  0  0  0  0  0  0  0  0  0
  102.1970  100.8310   99.9490 C   0  0  0  0  0  0  0  0  0  0  0  0
  100.7680  100.1790   98.2370 C   0  0  0  0  0  0  0  0  0  0  0  0
  102.0030  100.8540   98.5270 O   0  0  0  0  0  0  0  0  0  0  0  0
   95.1500  100.9030  104.7610 N   0  0  0  0  0  0  0  0  0  0  0  0
   94.1700  100.6940  104.9520 H   0  0  0  0  0  0  0  0  0  0  0  0
   95.5030  102.1160  105.4130 C   0  0  0  0  0  0  0  0  0  0  0  0
   95.5570  102.1390  106.8130 C   0  0  0  0  0  0  0  0  0  0  0  0
   95.9050  103.2610  104.7200 C   0  0  0  0  0  0  0  0  0  0  0  0
   95.9420  103.2930  107.5090 C   0  0  0  0  0  0  0  0  0  0  0  0
   96.2910  104.4150  105.4120 C   0  0  0  0  0  0  0  0  0  0  0  0
   96.3070  104.4470  106.8140 C   0  0  0  0  0  0  0  0  0  0  0  0
   96.7550  105.7970  104.4770 Cl  0  0  0  0  0  0  0  0  0  0  0  0
   96.6800  105.6260  107.3990 O   0  0  0  0  0  0  0  0  0  0  0  0
   98.0340  106.0570  107.2400 C   0  0  0  0  0  0  0  0  0  0  0  0
   98.9800  104.8800  107.3560 C   0  0  0  0  0  0  0  0  0  0  0  0
   99.2190  104.2740  108.5890 C   0  0  0  0  0  0  0  0  0  0  0  0
   99.6200  104.4910  106.2220 N   0  0  0  0  0  0  0  0  0  0  0  0
  100.1220  103.2150  108.6570 C   0  0  0  0  0  0  0  0  0  0  0  0
  100.4900  103.4600  106.3210 C   0  0  0  0  0  0  0  0  0  0  0  0
  100.7690  102.7970  107.5030 C   0  0  0  0  0  0  0  0  0  0  0  0
  1  2  1  0  0  0  0
  1 13  1  0  0  0  0
  3  4  1  0  0  0  0
  3  2  2  0  0  0  0
  4 29  1  0  0  0  0
  5  6  1  0  0  0  0
  5  4  2  0  0  0  0
  6  7  3  0  0  0  0
  8  5  1  0  0  0  0
  9  8  2  0  0  0  0
  9 10  1  0  0  0  0
 10  3  1  0  0  0  0
 11 10  2  0  0  0  0
 11 12  1  0  0  0  0
 12  1  2  0  0  0  0
 13 16  1  0  0  0  0
 13 14  1  0  0  0  0
 14 17  1  0  0  0  0
 15 14  2  0  0  0  0
 17 18  2  0  0  0  0
 18 19  1  0  0  0  0
 19 20  1  0  0  0  0
 20 21  1  0  0  0  0
 22 20  1  0  0  0  0
 23 12  1  0  0  0  0
 24 23  1  1  0  0  0
 25 24  1  0  0  0  0
 26 24  1  0  0  0  0
 27 28  1  0  0  0  0
 27 25  1  0  0  0  0
 28 26  1  0  0  0  0
 29 30  1  0  0  0  0
 29 31  1  0  0  0  0
 31 32  1  0  0  0  0
 32 34  2  0  0  0  0
 33 35  1  0  0  0  0
 33 31  2  0  0  0  0
 35 36  2  0  0  0  0
 36 38  1  0  0  0  0
 36 34  1  0  0  0  0
 37 35  1  0  0  0  0
 39 40  1  0  0  0  0
 39 38  1  0  0  0  0
 40 41  1  0  0  0  0
 41 43  2  0  0  0  0
 42 44  1  0  0  0  0
 42 40  2  0  0  0  0
 44 45  2  0  0  0  0
 45 43  1  0  0  0  0
M  END
>  <minimizedAffinity>
-7.73782682

>  <CNNscore>
0.49206689

>  <CNNaffinity>
8.48575115

$$$$
