
 OpenBabel07312609003D

 28 31  0  0  1  0  0  0  0  0999 V2000
   97.8740   99.7720  102.5590 C   0  0  0  0  0  0  0  0  0  0  0  0
   98.0440   99.9880  103.9050 C   0  0  0  0  0  0  0  0  0  0  0  0
   99.3190  100.3070  104.3110 C   0  0  0  0  0  0  0  0  0  0  0  0
  100.3450  100.3720  103.4540 N   0  0  0  0  0  0  0  0  0  0  0  0
  100.0830  100.1230  102.1570 C   0  0  0  0  0  0  0  0  0  0  0  0
  101.2200  100.2210  101.1890 C   0  0  0  0  0  0  0  0  0  0  0  0
   98.8690   99.8350  101.6640 N   0  0  0  0  0  0  0  0  0  0  0  0
   96.5970   99.4380  102.1590 O   0  0  0  0  0  0  0  0  0  0  0  0
   95.8110  100.5190  101.6470 C   0  0  0  0  0  0  0  0  0  0  0  0
   94.5450  100.7300  102.4200 C   0  0  2  0  0  0  0  0  0  0  0  0
   93.4420   99.6870  102.3820 C   0  0  2  0  0  0  0  0  0  0  0  0
   93.2160  101.0640  101.7940 C   0  0  0  0  0  0  0  0  0  0  0  0
   92.7590   99.2840  103.6670 C   0  0  0  0  0  0  0  0  0  0  0  0
   91.4750   98.5750  106.0250 C   0  0  0  0  0  0  0  0  0  0  0  0
   92.8610   98.4740  105.9400 C   0  0  0  0  0  0  0  0  0  0  0  0
   90.8030   99.0250  104.8980 C   0  0  0  0  0  0  0  0  0  0  0  0
   93.5050   98.8330  104.7570 C   0  0  0  0  0  0  0  0  0  0  0  0
   91.4090   99.3840  103.7420 N   0  0  0  0  0  0  0  0  0  0  0  0
   90.7440   98.1670  107.2630 C   0  0  0  0  0  0  0  0  0  0  0  0
   99.6380  100.5470  105.6490 N   0  0  0  0  0  0  0  0  0  0  0  0
   99.4660   99.6530  106.1140 H   0  0  0  0  0  0  0  0  0  0  0  0
  101.0300  100.9650  105.8630 C   0  0  0  0  0  0  0  0  0  0  0  0
  101.8970   99.9280  106.5190 C   0  0  0  0  0  0  0  0  0  0  0  0
  101.7950   98.6290  106.3280 N   0  0  0  0  0  0  0  0  0  0  0  0
  103.1450  100.3760  107.6160 S   0  0  0  0  0  0  0  0  0  0  0  0
  102.7260   97.9180  107.0580 N   0  0  0  0  0  0  0  0  0  0  0  0
  103.4930   98.7030  107.7830 C   0  0  0  0  0  0  0  0  0  0  0  0
  104.5810   98.2370  108.6800 C   0  0  0  0  0  0  0  0  0  0  0  0
  1  2  1  0  0  0  0
  2  3  2  0  0  0  0
  3 20  1  0  0  0  0
  4  3  1  0  0  0  0
  5  4  2  0  0  0  0
  6  5  1  0  0  0  0
  7  5  1  0  0  0  0
  7  1  2  0  0  0  0
  8  1  1  0  0  0  0
  9  8  1  0  0  0  0
 10  9  1  6  0  0  0
 11 10  1  0  0  0  0
 11 13  1  1  0  0  0
 12 11  1  0  0  0  0
 12 10  1  0  0  0  0
 13 18  2  0  0  0  0
 13 17  1  0  0  0  0
 14 19  1  0  0  0  0
 15 14  1  0  0  0  0
 16 14  2  0  0  0  0
 17 15  2  0  0  0  0
 18 16  1  0  0  0  0
 20 22  1  0  0  0  0
 20 21  1  0  0  0  0
 22 23  1  0  0  0  0
 23 25  1  0  0  0  0
 24 23  2  0  0  0  0
 24 26  1  0  0  0  0
 25 27  1  0  0  0  0
 26 27  2  0  0  0  0
 27 28  1  0  0  0  0
M  END
>  <minimizedAffinity>
-7.61257219

>  <CNNscore>
0.836519778

>  <CNNaffinity>
7.11941767

$$$$
