
 OpenBabel07302622333D

 29 33  0  0  0  0  0  0  0  0999 V2000
  100.7670  102.9560  105.1130 C   0  0  0  0  0  0  0  0  0  0  0  0
  100.0400  101.8320  105.1430 N   0  0  0  0  0  0  0  0  0  0  0  0
  100.6040  100.7650  105.7590 C   0  0  0  0  0  0  0  0  0  0  0  0
  101.8560  100.7610  106.3520 C   0  0  0  0  0  0  0  0  0  0  0  0
  102.5010  101.9850  106.2530 C   0  0  0  0  0  0  0  0  0  0  0  0
  101.9920  103.0820  105.6430 N   0  0  0  0  0  0  0  0  0  0  0  0
  100.1710  104.0190  104.4460 O   0  0  0  0  0  0  0  0  0  0  0  0
  100.1720  105.2320  105.0880 C   0  0  0  0  0  0  0  0  0  0  0  0
  100.1000  107.7810  106.3090 C   0  0  0  0  0  0  0  0  0  0  0  0
   99.0280  106.8930  106.4530 C   0  0  0  0  0  0  0  0  0  0  0  0
  101.1690  107.3640  105.5230 C   0  0  0  0  0  0  0  0  0  0  0  0
   99.0590  105.6300  105.8400 C   0  0  0  0  0  0  0  0  0  0  0  0
  101.2330  106.1120  104.9080 C   0  0  0  0  0  0  0  0  0  0  0  0
  102.2670  108.1630  105.2690 O   0  0  0  0  0  0  0  0  0  0  0  0
  102.4980  106.0440  104.1550 C   0  0  0  0  0  0  0  0  0  0  0  0
  103.1550  107.3790  104.4220 C   0  0  0  0  0  0  0  0  0  0  0  0
  103.3400  104.8030  104.0050 C   0  0  0  0  0  0  0  0  0  0  0  0
  102.6290  105.3750  102.8100 C   0  0  0  0  0  0  0  0  0  0  0  0
  100.0760  109.1410  106.9330 C   0  0  0  0  0  0  0  0  0  0  0  0
  102.4210   99.6260  106.9940 N   0  0  0  0  0  0  0  0  0  0  0  0
  102.5490   98.3780  106.4330 C   0  0  0  0  0  0  0  0  0  0  0  0
  102.9160   99.5960  108.2840 C   0  0  0  0  0  0  0  0  0  0  0  0
  102.2550   97.9950  105.3130 O   0  0  0  0  0  0  0  0  0  0  0  0
  103.1200   97.5280  107.3540 N   0  0  0  0  0  0  0  0  0  0  0  0
  103.4700   98.1920  108.5770 C   0  0  0  0  0  0  0  0  0  0  0  0
  102.9380  100.5040  109.1080 O   0  0  0  0  0  0  0  0  0  0  0  0
  103.3440   96.5730  107.1050 H   0  0  0  0  0  0  0  0  0  0  0  0
  104.9820   98.2470  108.7580 C   0  0  0  0  0  0  0  0  0  0  0  0
  102.7640   97.5670  109.7710 C   0  0  0  0  0  0  0  0  0  0  0  0
  1  2  2  0  0  0  0
  1  6  1  0  0  0  0
  2  3  1  0  0  0  0
  3  4  2  0  0  0  0
  4 20  1  0  0  0  0
  5  4  1  0  0  0  0
  6  5  2  0  0  0  0
  7  8  1  0  0  0  0
  7  1  1  0  0  0  0
  8 12  1  0  0  0  0
  9 10  1  0  0  0  0
  9 19  1  0  0  0  0
 11  9  2  0  0  0  0
 12 10  2  0  0  0  0
 13  8  2  0  0  0  0
 13 11  1  0  0  0  0
 14 11  1  0  0  0  0
 15 16  1  0  0  0  0
 15 13  1  0  0  0  0
 16 14  1  0  0  0  0
 17 15  1  0  0  0  0
 18 17  1  0  0  0  0
 18 15  1  0  0  0  0
 20 22  1  0  0  0  0
 21 20  1  0  0  0  0
 21 24  1  0  0  0  0
 22 25  1  0  0  0  0
 22 26  2  0  0  0  0
 23 21  2  0  0  0  0
 24 25  1  0  0  0  0
 25 28  1  0  0  0  0
 25 29  1  0  0  0  0
 27 24  1  0  0  0  0
M  END
>  <minimizedAffinity>
-7.4242239

>  <CNNscore>
0.808109999

>  <CNNaffinity>
7.31422949

$$$$
