
 OpenBabel08012600433D

 35 37  0  0  1  0  0  0  0  0999 V2000
   97.2670  104.5390  105.0710 C   0  0  0  0  0  0  0  0  0  0  0  0
   97.1600  105.7590  105.1430 O   0  0  0  0  0  0  0  0  0  0  0  0
   98.2960  103.8170  105.6440 N   0  0  0  0  0  0  0  0  0  0  0  0
   98.5020  102.9250  105.2200 H   0  0  0  0  0  0  0  0  0  0  0  0
   96.2410  103.6830  104.3460 C   0  0  0  0  0  2  0  0  0  0  0  0
   96.6990  102.2500  104.2020 C   0  0  0  0  0  0  0  0  0  0  0  0
   98.0600  100.5870  103.0330 C   0  0  0  0  0  0  0  0  0  0  0  0
   97.6420  101.9110  103.2130 C   0  0  0  0  0  3  0  0  0  0  0  0
   97.5420   99.6030  103.8870 C   0  0  0  0  0  0  0  0  0  0  0  0
   96.5820   99.9260  104.8560 C   0  0  0  0  0  3  0  0  0  0  0  0
   96.1620  101.2450  105.0130 C   0  0  0  0  0  3  0  0  0  0  0  0
   98.9440  100.1820  102.0700 O   0  0  0  0  0  0  0  0  0  0  0  0
  100.3340  100.4490  102.2530 C   0  0  0  0  0  2  0  0  0  0  0  0
  101.1450   99.8420  101.1210 C   0  0  0  0  0  1  0  0  0  0  0  0
   97.9280   98.1850  103.7780 C   0  0  0  0  0  0  0  0  0  0  0  0
   97.5510   97.4160  102.9130 O   0  0  0  0  0  0  0  0  0  0  0  0
   98.6700   97.7770  104.8210 O   0  0  0  0  0  0  0  0  0  0  0  0
   98.8500   96.8340  104.6340 H   0  0  0  0  0  0  0  0  0  0  0  0
   99.4200  104.4800  106.3050 C   0  0  1  0  0  3  0  0  0  0  0  0
   99.8210  103.8510  107.6630 C   0  0  0  0  0  2  0  0  0  0  0  0
   98.9880  104.2140  108.9140 C   0  0  0  0  0  3  0  0  0  0  0  0
   98.6370  105.7060  108.8700 C   0  0  0  0  0  1  0  0  0  0  0  0
   97.6990  103.4020  109.0400 C   0  0  0  0  0  1  0  0  0  0  0  0
  100.6160  104.6350  105.3630 C   0  0  0  0  0  0  0  0  0  0  0  0
  100.7530  105.7820  104.5530 C   0  0  0  0  0  3  0  0  0  0  0  0
  101.5870  103.6110  105.2630 C   0  0  0  0  0  0  0  0  0  0  0  0
  101.8360  105.9310  103.6870 C   0  0  0  0  0  3  0  0  0  0  0  0
  102.6750  103.7840  104.3890 C   0  0  0  0  0  3  0  0  0  0  0  0
  102.8020  104.9340  103.6100 C   0  0  0  0  0  3  0  0  0  0  0  0
  101.4460  102.4430  106.0400 N   0  0  0  0  0  0  0  0  0  0  0  0
  102.6870  102.0850  106.7460 C   0  0  0  0  0  2  0  0  0  0  0  0
  100.8380  101.3200  105.3080 C   0  0  0  0  0  2  0  0  0  0  0  0
  102.3800  100.9900  107.7680 C   0  0  0  0  0  2  0  0  0  0  0  0
  100.4840  100.2130  106.3020 C   0  0  0  0  0  2  0  0  0  0  0  0
  101.7110   99.7850  107.1060 C   0  0  0  0  0  2  0  0  0  0  0  0
  1  2  2  0  0  0  0
  1  3  1  0  0  0  0
  3 19  1  0  0  0  0
  4  3  1  0  0  0  0
  5  1  1  0  0  0  0
  6  5  1  0  0  0  0
  6 11  1  0  0  0  0
  7  8  1  0  0  0  0
  7  9  2  0  0  0  0
  8  6  2  0  0  0  0
  9 10  1  0  0  0  0
 10 11  2  0  0  0  0
 12 13  1  0  0  0  0
 12  7  1  0  0  0  0
 14 13  1  0  0  0  0
 15  9  1  0  0  0  0
 15 17  1  0  0  0  0
 16 15  2  0  0  0  0
 18 17  1  0  0  0  0
 19 20  1  1  0  0  0
 20 21  1  0  0  0  0
 21 23  1  0  0  0  0
 22 21  1  0  0  0  0
 24 19  1  0  0  0  0
 25 24  2  0  0  0  0
 26 24  1  0  0  0  0
 26 30  1  0  0  0  0
 27 25  1  0  0  0  0
 28 26  2  0  0  0  0
 29 27  2  0  0  0  0
 29 28  1  0  0  0  0
 30 31  1  0  0  0  0
 31 33  1  0  0  0  0
 32 30  1  0  0  0  0
 32 34  1  0  0  0  0
 34 35  1  0  0  0  0
 35 33  1  0  0  0  0
M  END
>  <minimizedAffinity>
-8.46891975

>  <CNNscore>
0.733452141

>  <CNNaffinity>
6.62658644

$$$$
