
 OpenBabel07312611253D

 34 38  0  0  1  0  0  0  0  0999 V2000
  100.3720  100.9210  104.9870 C   0  0  0  0  0  0  0  0  0  0  0  0
  100.1630  102.0450  105.4550 O   0  0  0  0  0  0  0  0  0  0  0  0
  101.5220  100.0490  105.4970 C   0  0  0  0  0  0  0  0  0  0  0  0
  101.3730   99.7030  106.8760 O   0  0  0  0  0  0  0  0  0  0  0  0
  102.2650   98.7720  107.3120 C   0  0  0  0  0  0  0  0  0  0  0  0
  102.6630   97.8140  106.6640 O   0  0  0  0  0  0  0  0  0  0  0  0
  102.7380   99.1180  108.6900 C   0  0  0  0  0  0  0  0  0  0  0  0
   99.5490  100.3810  103.8060 C   0  0  1  0  0  0  0  0  0  0  0  0
  100.0450  101.0210  102.5620 N   0  0  0  0  0  0  0  0  0  0  0  0
   99.7810   98.8720  103.5790 C   0  0  2  0  0  0  0  0  0  0  0  0
   98.0020  100.5230  103.9510 C   0  0  1  0  0  0  0  0  0  0  0  0
  100.6270  100.0610  101.9190 C   0  0  0  0  0  0  0  0  0  0  0  0
  100.5970   98.8070  102.4110 O   0  0  0  0  0  0  0  0  0  0  0  0
   98.4060   98.2360  103.2960 C   0  0  0  0  0  0  0  0  0  0  0  0
   97.3880  101.8630  103.4950 C   0  0  0  0  0  0  0  0  0  0  0  0
   97.5210   99.4360  102.9600 C   0  0  1  0  0  0  0  0  0  0  0  0
   95.8460  101.8180  103.3660 C   0  0  1  0  0  0  0  0  0  0  0  0
   95.9950   99.2560  102.9480 C   0  0  1  0  0  0  0  0  0  0  0  0
   95.3260  100.6070  102.5240 C   0  0  1  0  0  0  0  0  0  0  0  0
   95.5940   98.1180  101.9910 C   0  0  0  0  0  0  0  0  0  0  0  0
   93.7510  100.4750  102.4120 C   0  0  1  0  0  0  0  0  0  0  0  0
   94.0810   97.9690  101.8730 C   0  0  0  0  0  0  0  0  0  0  0  0
   93.1340  101.7600  101.8600 C   0  0  0  0  0  0  0  0  0  0  0  0
   93.4440   99.2800  101.4880 C   0  0  0  0  0  0  0  0  0  0  0  0
   92.3930  101.8450  100.7470 C   0  0  0  0  0  0  0  0  0  0  0  0
   92.6980   99.3710  100.3730 C   0  0  0  0  0  0  0  0  0  0  0  0
   92.1030  100.6500   99.9320 C   0  0  0  0  0  0  0  0  0  0  0  0
   91.3980  100.7150   98.9330 O   0  0  0  0  0  0  0  0  0  0  0  0
   97.5940  100.2220  105.4220 C   0  0  0  0  0  0  0  0  0  0  0  0
  101.3370  100.2090  100.6230 C   0  0  0  0  0  0  0  0  0  0  0  0
   95.7830  100.8590  101.2360 F   0  0  0  0  0  0  0  0  0  0  0  0
   93.0450  100.2130  103.7630 C   0  0  0  0  0  0  0  0  0  0  0  0
   95.2630  101.8740  104.6640 O   0  0  0  0  0  0  0  0  0  0  0  0
   95.5380  102.7130  105.0770 H   0  0  0  0  0  0  0  0  0  0  0  0
  1  2  2  0  0  0  0
  1  3  1  0  0  0  0
  3  4  1  0  0  0  0
  4  5  1  0  0  0  0
  5  7  1  0  0  0  0
  6  5  2  0  0  0  0
  8 11  1  0  0  0  0
  8  1  1  1  0  0  0
  9  8  1  0  0  0  0
 10 14  1  6  0  0  0
 10  8  1  0  0  0  0
 11 29  1  1  0  0  0
 12 13  1  0  0  0  0
 12  9  2  0  0  0  0
 13 10  1  0  0  0  0
 15 11  1  0  0  0  0
 16 14  1  1  0  0  0
 16 11  1  0  0  0  0
 17 15  1  0  0  0  0
 17 33  1  1  0  0  0
 18 20  1  6  0  0  0
 18 16  1  0  0  0  0
 19 31  1  6  0  0  0
 19 18  1  0  0  0  0
 19 17  1  0  0  0  0
 21 19  1  0  0  0  0
 21 32  1  1  0  0  0
 22 20  1  0  0  0  0
 23 21  1  0  0  0  0
 24 22  1  0  0  0  0
 24 21  1  0  0  0  0
 25 23  2  0  0  0  0
 26 24  2  0  0  0  0
 27 26  1  0  0  0  0
 27 25  1  0  0  0  0
 28 27  2  0  0  0  0
 30 12  1  0  0  0  0
 33 34  1  0  0  0  0
M  END
>  <minimizedAffinity>
-7.70336723

>  <CNNscore>
0.90392679

>  <CNNaffinity>
7.22101784

$$$$
