
 OpenBabel07312609223D

 45 50  0  0  1  0  0  0  0  0999 V2000
   89.3800   98.9060  103.8210 C   0  0  0  0  0  0  0  0  0  0  0  0
   88.7160   97.8100  104.3790 C   0  0  0  0  0  0  0  0  0  0  0  0
   89.3730   97.0390  105.3290 C   0  0  0  0  0  0  0  0  0  0  0  0
   90.6310   97.2800  105.7570 N   0  0  0  0  0  0  0  0  0  0  0  0
   91.2610   98.3550  105.2010 C   0  0  0  0  0  0  0  0  0  0  0  0
   90.6840   99.1830  104.2470 C   0  0  0  0  0  0  0  0  0  0  0  0
   88.7160   99.7810  102.7820 C   0  0  0  0  0  0  0  0  0  0  0  0
   89.5960  100.0640  101.6430 N   0  0  0  0  0  0  0  0  0  0  0  0
   91.9320  100.3330  100.8510 C   0  0  2  0  0  0  0  0  0  0  0  0
   91.3050  100.9770   99.6000 C   0  0  0  0  0  0  0  0  0  0  0  0
   90.9680  100.3520  102.0630 C   0  0  0  0  0  0  0  0  0  0  0  0
   90.1340  101.8780   99.9720 C   0  0  0  0  0  0  0  0  0  0  0  0
   89.0600  101.1150  100.7610 C   0  0  0  0  0  0  0  0  0  0  0  0
   93.2000  100.9790  101.1930 N   0  0  0  0  0  0  0  0  0  0  0  0
   94.3940  100.3160  101.0720 C   0  0  0  0  0  0  0  0  0  0  0  0
   94.4960   99.1340  100.7620 O   0  0  0  0  0  0  0  0  0  0  0  0
   93.2000  101.9670  101.3900 H   0  0  0  0  0  0  0  0  0  0  0  0
   95.6190  101.1010  101.3730 C   0  0  0  0  0  0  0  0  0  0  0  0
   96.8820  100.6550  101.4080 C   0  0  0  0  0  0  0  0  0  0  0  0
   92.6640   98.6130  105.6720 C   0  0  0  0  0  0  0  0  0  0  0  0
   93.0000   98.2910  106.8050 O   0  0  0  0  0  0  0  0  0  0  0  0
   93.4470   99.2230  104.7090 N   0  0  0  0  0  0  0  0  0  0  0  0
   92.9600   99.3910  103.8310 H   0  0  0  0  0  0  0  0  0  0  0  0
   94.7810   99.6520  104.8150 C   0  0  0  0  0  0  0  0  0  0  0  0
   95.0030  100.9500  105.2850 C   0  0  0  0  0  0  0  0  0  0  0  0
   95.8810   98.8590  104.4890 C   0  0  0  0  0  0  0  0  0  0  0  0
   96.3050  101.4410  105.4430 C   0  0  0  0  0  0  0  0  0  0  0  0
   97.1830   99.3500  104.6450 C   0  0  0  0  0  0  0  0  0  0  0  0
   97.4110  100.6400  105.1340 C   0  0  0  0  0  0  0  0  0  0  0  0
   98.7770  101.1270  105.3220 C   0  0  0  0  0  0  0  0  0  0  0  0
   99.7540  100.7540  106.2370 C   0  0  0  0  0  0  0  0  0  0  0  0
   99.3290  102.1370  104.5640 N   0  0  0  0  0  0  0  0  0  0  0  0
  100.9100  101.5610  106.0270 C   0  0  0  0  0  0  0  0  0  0  0  0
  100.6070  102.4000  104.9680 C   0  0  0  0  0  0  0  0  0  0  0  0
  102.1980  101.6780  106.5920 C   0  0  0  0  0  0  0  0  0  0  0  0
  101.4020  103.3220  104.4090 N   0  0  0  0  0  0  0  0  0  0  0  0
  103.0370  102.5970  106.0400 N   0  0  0  0  0  0  0  0  0  0  0  0
  102.6040  103.3470  105.0070 C   0  0  0  0  0  0  0  0  0  0  0  0
   98.8690  102.6330  103.8140 H   0  0  0  0  0  0  0  0  0  0  0  0
  102.6270  100.8860  107.6740 N   0  0  0  0  0  0  0  0  0  0  0  0
  101.7780   99.7020  107.9360 C   0  0  0  0  0  0  0  0  0  0  0  0
  104.0680  100.5570  107.5400 C   0  0  0  0  0  0  0  0  0  0  0  0
  102.3770   98.4470  107.2830 C   0  0  0  0  0  0  0  0  0  0  0  0
  104.3980   99.2590  108.2950 C   0  0  0  0  0  0  0  0  0  0  0  0
  103.6810   98.1170  107.7980 O   0  0  0  0  0  0  0  0  0  0  0  0
  1  6  2  0  0  0  0
  1  2  1  0  0  0  0
  2  3  2  0  0  0  0
  3  4  1  0  0  0  0
  5 20  1  0  0  0  0
  5  4  2  0  0  0  0
  6  5  1  0  0  0  0
  7  1  1  0  0  0  0
  8 11  1  0  0  0  0
  8  7  1  0  0  0  0
  9 14  1  1  0  0  0
  9 11  1  0  0  0  0
 10 12  1  0  0  0  0
 10  9  1  0  0  0  0
 12 13  1  0  0  0  0
 13  8  1  0  0  0  0
 14 17  1  0  0  0  0
 15 14  1  0  0  0  0
 15 18  1  0  0  0  0
 16 15  2  0  0  0  0
 18 19  2  0  0  0  0
 20 21  2  0  0  0  0
 22 24  1  0  0  0  0
 22 20  1  0  0  0  0
 23 22  1  0  0  0  0
 24 25  1  0  0  0  0
 25 27  2  0  0  0  0
 26 28  1  0  0  0  0
 26 24  2  0  0  0  0
 28 29  2  0  0  0  0
 29 30  1  0  0  0  0
 29 27  1  0  0  0  0
 30 31  2  0  0  0  0
 32 34  1  0  0  0  0
 32 30  1  0  0  0  0
 33 31  1  0  0  0  0
 33 35  1  0  0  0  0
 34 33  2  0  0  0  0
 35 40  1  0  0  0  0
 36 34  1  0  0  0  0
 36 38  2  0  0  0  0
 37 35  2  0  0  0  0
 38 37  1  0  0  0  0
 39 32  1  0  0  0  0
 40 41  1  0  0  0  0
 42 40  1  0  0  0  0
 42 44  1  0  0  0  0
 43 45  1  0  0  0  0
 43 41  1  0  0  0  0
 45 44  1  0  0  0  0
M  END
>  <minimizedAffinity>
-7.34820843

>  <CNNscore>
0.298519403

>  <CNNaffinity>
6.86746359

$$$$
