
 OpenBabel08012600313D

 28 31  0  0  1  0  0  0  0  0999 V2000
  101.2660  100.9260  104.0800 O   0  0  0  0  0  0  0  0  0  0  0  0
  100.8180   99.6520  103.5930 C   0  0  2  0  0  3  0  0  0  0  0  0
   98.6270  100.0020  102.7290 N   0  0  0  0  0  0  0  0  0  0  0  0
   98.5090   99.8540  104.1650 C   0  0  0  0  0  2  0  0  0  0  0  0
  100.0080   99.7850  102.2940 C   0  0  0  0  0  2  0  0  0  0  0  0
   99.7760   99.1210  104.5800 C   0  0  0  0  0  2  0  0  0  0  0  0
   97.5970  100.5400  102.0000 C   0  0  0  0  0  0  0  0  0  0  0  0
   97.1610  100.0350  100.9680 O   0  0  0  0  0  0  0  0  0  0  0  0
   96.9520  101.7710  102.5180 C   0  0  0  0  0  3  0  0  0  0  0  0
   96.7830  102.0030  103.8260 C   0  0  0  0  0  2  0  0  0  0  0  0
  101.4770  100.9740  105.4470 C   0  0  0  0  0  0  0  0  0  0  0  0
  102.3080  100.0660  105.9970 N   0  0  0  0  0  0  0  0  0  0  0  0
  100.8220  101.9850  106.1690 C   0  0  0  0  0  0  0  0  0  0  0  0
  102.5140  100.1380  107.3300 C   0  0  0  0  0  0  0  0  0  0  0  0
   99.9580  102.9410  105.5880 C   0  0  0  0  0  3  0  0  0  0  0  0
  101.0580  102.0350  107.5580 C   0  0  0  0  0  0  0  0  0  0  0  0
  101.9180  101.0950  108.1420 C   0  0  0  0  0  3  0  0  0  0  0  0
   99.3420  103.9190  106.3690 C   0  0  0  0  0  3  0  0  0  0  0  0
  100.4310  103.0270  108.3310 C   0  0  0  0  0  3  0  0  0  0  0  0
   99.5780  103.9620  107.7400 C   0  0  0  0  0  3  0  0  0  0  0  0
  103.4430   99.1160  107.8740 C   0  0  0  0  0  0  0  0  0  0  0  0
  103.7330   98.9640  109.1390 N   0  0  0  0  0  0  0  0  0  0  0  0
  104.0900   98.2380  107.0610 N   0  0  0  0  0  0  0  0  0  0  0  0
  104.6230   97.9220  109.1560 N   0  0  0  0  0  0  0  0  0  0  0  0
  104.8720   97.4730  107.8710 C   0  0  0  0  0  0  0  0  0  0  0  0
  105.6350   96.5910  107.5210 O   0  0  0  0  0  0  0  0  0  0  0  0
  104.1040   98.1570  106.0600 H   0  0  0  0  0  0  0  0  0  0  0  0
  105.0600   97.5890  110.0040 H   0  0  0  0  0  0  0  0  0  0  0  0
  1 11  1  0  0  0  0
  2  1  1  1  0  0  0
  2  6  1  0  0  0  0
  3  4  1  0  0  0  0
  4  6  1  0  0  0  0
  5  3  1  0  0  0  0
  5  2  1  0  0  0  0
  7  9  1  0  0  0  0
  7  3  1  0  0  0  0
  8  7  2  0  0  0  0
  9 10  2  0  0  0  0
 11 12  2  0  0  0  0
 11 13  1  0  0  0  0
 12 14  1  0  0  0  0
 13 16  1  0  0  0  0
 14 21  1  0  0  0  0
 14 17  2  0  0  0  0
 15 13  2  0  0  0  0
 15 18  1  0  0  0  0
 16 17  1  0  0  0  0
 16 19  2  0  0  0  0
 18 20  2  0  0  0  0
 20 19  1  0  0  0  0
 21 22  2  0  0  0  0
 22 24  1  0  0  0  0
 23 25  1  0  0  0  0
 23 21  1  0  0  0  0
 24 28  1  0  0  0  0
 25 24  1  0  0  0  0
 26 25  2  0  0  0  0
 27 23  1  0  0  0  0
M  END
>  <minimizedAffinity>
-8.08287811

>  <CNNscore>
0.889707863

>  <CNNaffinity>
7.17436838

$$$$
