
 OpenBabel07312623403D

 35 37  0  0  1  0  0  0  0  0999 V2000
  100.9320  100.9910  106.5400 C   0  0  2  0  0  3  0  0  0  0  0  0
  100.5540  102.7770  106.6430 S   0  0  0  0  0  0  0  0  0  0  0  0
   99.0640  102.7490  107.7060 C   0  0  0  0  0  2  0  0  0  0  0  0
   98.0020  103.7490  107.2650 C   0  0  0  0  0  2  0  0  0  0  0  0
   98.6230  104.9890  106.6450 C   0  0  0  0  0  0  0  0  0  0  0  0
   99.1620  105.9230  107.5250 N   0  0  0  0  0  0  0  0  0  0  0  0
   98.6550  105.1380  105.4240 O   0  0  0  0  0  0  0  0  0  0  0  0
   98.9920  105.8760  108.9720 C   0  0  0  0  0  1  0  0  0  0  0  0
   99.6450  107.1830  106.9820 C   0  0  0  0  0  1  0  0  0  0  0  0
  102.7390  100.7210  106.7540 S   0  0  0  0  0  0  0  0  0  0  0  0
  102.8460   99.0250  107.4320 C   0  0  0  0  0  2  0  0  0  0  0  0
  103.8900   98.8040  108.5150 C   0  0  0  0  0  2  0  0  0  0  0  0
  105.0710   97.9870  108.0760 C   0  0  0  0  0  0  0  0  0  0  0  0
  105.0580   97.1140  107.2230 O   0  0  0  0  0  0  0  0  0  0  0  0
  106.1860   98.2180  108.7920 O   0  0  0  0  0  0  0  0  0  0  0  0
  106.8490   97.6170  108.3910 H   0  0  0  0  0  0  0  0  0  0  0  0
  100.3360  100.2370  105.3630 C   0  0  0  0  0  0  0  0  0  0  0  0
  101.1970   99.7740  104.3520 C   0  0  0  0  0  3  0  0  0  0  0  0
   98.9580   99.9790  105.2240 C   0  0  0  0  0  3  0  0  0  0  0  0
  100.7010   99.0660  103.2570 C   0  0  0  0  0  3  0  0  0  0  0  0
   98.4460   99.2740  104.1250 C   0  0  0  0  0  0  0  0  0  0  0  0
   99.3350   98.8110  103.1500 C   0  0  0  0  0  3  0  0  0  0  0  0
   97.0190   98.9440  103.9940 C   0  0  0  0  0  3  0  0  0  0  0  0
   96.0300   99.5310  104.6890 C   0  0  0  0  0  3  0  0  0  0  0  0
   94.6090   99.1800  104.5400 C   0  0  0  0  0  0  0  0  0  0  0  0
   94.0330   99.1410  103.2780 C   0  0  0  0  0  3  0  0  0  0  0  0
   93.9110   98.9080  105.6690 N   0  0  0  0  0  0  0  0  0  0  0  0
   92.6860   98.8080  103.1680 C   0  0  0  0  0  3  0  0  0  0  0  0
   92.6110   98.5840  105.5640 C   0  0  0  0  0  0  0  0  0  0  0  0
   91.9470   98.5200  104.3200 C   0  0  0  0  0  0  0  0  0  0  0  0
   91.8890   98.3020  106.7130 C   0  0  0  0  0  3  0  0  0  0  0  0
   90.5850   98.1770  104.2580 C   0  0  0  0  0  3  0  0  0  0  0  0
   90.5390   97.9610  106.6500 C   0  0  0  0  0  0  0  0  0  0  0  0
   89.8810   97.8970  105.4260 C   0  0  0  0  0  3  0  0  0  0  0  0
   89.6760   97.6170  108.0990 Cl  0  0  0  0  0  0  0  0  0  0  0  0
  1  2  1  6  0  0  0
  1 10  1  0  0  0  0
  2  3  1  0  0  0  0
  4  3  1  0  0  0  0
  5  4  1  0  0  0  0
  5  6  1  0  0  0  0
  6  8  1  0  0  0  0
  7  5  2  0  0  0  0
  9  6  1  0  0  0  0
 10 11  1  0  0  0  0
 11 12  1  0  0  0  0
 13 12  1  0  0  0  0
 13 15  1  0  0  0  0
 14 13  2  0  0  0  0
 16 15  1  0  0  0  0
 17  1  1  0  0  0  0
 18 17  2  0  0  0  0
 19 17  1  0  0  0  0
 20 18  1  0  0  0  0
 21 19  2  0  0  0  0
 22 20  2  0  0  0  0
 22 21  1  0  0  0  0
 23 21  1  0  0  0  0
 23 24  2  0  0  0  0
 25 24  1  0  0  0  0
 25 27  1  0  0  0  0
 26 25  2  0  0  0  0
 28 26  1  0  0  0  0
 28 30  2  0  0  0  0
 29 27  2  0  0  0  0
 29 31  1  0  0  0  0
 30 29  1  0  0  0  0
 32 30  1  0  0  0  0
 32 34  2  0  0  0  0
 33 31  2  0  0  0  0
 33 35  1  0  0  0  0
 34 33  1  0  0  0  0
M  END
>  <minimizedAffinity>
-8.38189316

>  <CNNscore>
0.809351742

>  <CNNaffinity>
7.60518074

$$$$
