
 OpenBabel07312606533D

 40 43  0  0  1  0  0  0  0  0999 V2000
  100.1870  102.3360  104.4800 C   0  0  0  0  0  0  0  0  0  0  0  0
   98.8780  102.4090  104.7880 C   0  0  0  0  0  0  0  0  0  0  0  0
   98.4210  103.0840  106.0260 C   0  0  0  0  0  0  0  0  0  0  0  0
   98.9920  102.9010  107.3030 C   0  0  0  0  0  0  0  0  0  0  0  0
  100.1620  101.6680  107.6430 Cl  0  0  0  0  0  0  0  0  0  0  0  0
   98.5810  103.6770  108.3950 C   0  0  0  0  0  0  0  0  0  0  0  0
   97.5880  104.6390  108.2420 C   0  0  0  0  0  0  0  0  0  0  0  0
   96.9720  104.7940  107.0070 C   0  0  0  0  0  0  0  0  0  0  0  0
   97.3590  104.0030  105.9120 C   0  0  0  0  0  0  0  0  0  0  0  0
   96.5770  104.0790  104.6600 C   0  0  0  0  0  0  0  0  0  0  0  0
   95.8150  105.0200  104.4430 O   0  0  0  0  0  0  0  0  0  0  0  0
   96.6230  102.9030  103.7650 C   0  0  0  0  0  0  0  0  0  0  0  0
   95.5570  102.5890  103.0020 C   0  0  0  0  0  0  0  0  0  0  0  0
   95.5640  101.2700  102.2610 C   0  0  2  0  0  0  0  0  0  0  0  0
   94.2010  100.9010  101.6550 C   0  0  0  0  0  0  0  0  0  0  0  0
   93.9600  101.1280  100.4630 O   0  0  0  0  0  0  0  0  0  0  0  0
   93.1650  100.3050  102.5390 C   0  0  0  0  0  0  0  0  0  0  0  0
   93.5430   99.8200  103.7430 C   0  0  0  0  0  0  0  0  0  0  0  0
   94.9870   99.7780  104.2460 C   0  0  2  0  0  0  0  0  0  0  0  0
   96.0640  100.1400  103.1760 C   0  0  2  0  0  0  0  0  0  0  0  0
   97.4080  100.5050  103.8990 C   0  0  2  0  0  0  0  0  0  0  0  0
   97.8270  101.9980  103.7690 C   0  0  2  0  0  0  0  0  0  0  0  0
   98.4500   99.6780  103.3570 O   0  0  0  0  0  0  0  0  0  0  0  0
   98.2520   98.7640  103.6310 H   0  0  0  0  0  0  0  0  0  0  0  0
   95.9750  105.7300  106.9460 O   0  0  0  0  0  0  0  0  0  0  0  0
   95.6750  105.8080  106.0140 H   0  0  0  0  0  0  0  0  0  0  0  0
   94.4130  103.3560  102.9180 O   0  0  0  0  0  0  0  0  0  0  0  0
   94.5920  104.2280  103.3390 H   0  0  0  0  0  0  0  0  0  0  0  0
   95.4280   98.5140  104.8900 N   0  0  0  0  0  0  0  0  0  0  0  0
   96.8490   98.2280  104.6770 C   0  0  0  0  0  0  0  0  0  0  0  0
   95.0960   98.4020  106.3110 C   0  0  0  0  0  0  0  0  0  0  0  0
   96.4740  101.4180  101.1600 O   0  0  0  0  0  0  0  0  0  0  0  0
   95.9700  101.8700  100.4540 H   0  0  0  0  0  0  0  0  0  0  0  0
   92.6220   99.3410  104.6730 O   0  0  0  0  0  0  0  0  0  0  0  0
   91.7160   99.3690  104.2880 H   0  0  0  0  0  0  0  0  0  0  0  0
   91.7230  100.2590  102.1480 C   0  0  0  0  0  0  0  0  0  0  0  0
   91.4290   99.8300  100.8970 N   0  0  0  0  0  0  0  0  0  0  0  0
   90.8290  100.5910  102.9240 O   0  0  0  0  0  0  0  0  0  0  0  0
   90.4610   99.7590  100.6130 H   0  0  0  0  0  0  0  0  0  0  0  0
   92.1500   99.4920  100.2610 H   0  0  0  0  0  0  0  0  0  0  0  0
  1  2  2  0  0  0  0
  2  3  1  0  0  0  0
  3  4  1  0  0  0  0
  4  5  1  0  0  0  0
  4  6  2  0  0  0  0
  7  6  1  0  0  0  0
  8  7  2  0  0  0  0
  9  3  2  0  0  0  0
  9  8  1  0  0  0  0
 10  9  1  0  0  0  0
 11 10  2  0  0  0  0
 12 22  1  0  0  0  0
 12 10  1  0  0  0  0
 13 12  2  0  0  0  0
 14 32  1  6  0  0  0
 14 13  1  0  0  0  0
 14 20  1  0  0  0  0
 15 14  1  0  0  0  0
 15 17  1  0  0  0  0
 16 15  2  0  0  0  0
 17 18  2  0  0  0  0
 18 19  1  0  0  0  0
 18 34  1  0  0  0  0
 19 29  1  6  0  0  0
 20 21  1  0  0  0  0
 20 19  1  0  0  0  0
 22 21  1  0  0  0  0
 22  2  1  0  0  0  0
 23 24  1  0  0  0  0
 23 21  1  0  0  0  0
 25  8  1  0  0  0  0
 26 25  1  0  0  0  0
 27 13  1  0  0  0  0
 27 28  1  0  0  0  0
 29 31  1  0  0  0  0
 30 29  1  0  0  0  0
 33 32  1  0  0  0  0
 35 34  1  0  0  0  0
 36 17  1  0  0  0  0
 36 38  2  0  0  0  0
 37 36  1  0  0  0  0
 39 37  1  0  0  0  0
 40 37  1  0  0  0  0
M  END
>  <minimizedAffinity>
-8.94941139

>  <CNNscore>
0.833040535

>  <CNNaffinity>
6.7660985

$$$$
