
 OpenBabel07312603333D

 48 51  0  0  1  0  0  0  0  0999 V2000
   98.8120  103.1730  105.2750 N   0  0  0  0  0  0  0  0  0  0  0  0
   98.4560  104.1270  105.3290 H   0  0  0  0  0  0  0  0  0  0  0  0
   97.7900  102.2800  105.1620 C   0  0  0  0  0  0  0  0  0  0  0  0
   97.6110  101.5610  104.0020 N   0  0  0  0  0  0  0  0  0  0  0  0
   96.4760  100.7950  104.1430 C   0  0  0  0  0  0  0  0  0  0  0  0
   96.8510  101.9990  106.0370 N   0  0  0  0  0  0  0  0  0  0  0  0
   95.8090   99.8980  103.3030 C   0  0  0  0  0  0  0  0  0  0  0  0
   96.0330  101.0830  105.4300 C   0  0  0  0  0  0  0  0  0  0  0  0
   94.6360   99.3080  103.8020 C   0  0  0  0  0  0  0  0  0  0  0  0
   94.8850  100.4510  105.9280 C   0  0  0  0  0  0  0  0  0  0  0  0
   94.1880   99.5410  105.1130 C   0  0  0  0  0  0  0  0  0  0  0  0
   98.4980  101.5820  102.8650 C   0  0  0  0  0  0  0  0  0  0  0  0
   93.9610   98.4530  102.9630 O   0  0  0  0  0  0  0  0  0  0  0  0
   94.1700   98.8130  101.5820 C   0  0  0  0  0  0  0  0  0  0  0  0
   92.9810   98.3690  100.7420 C   0  0  0  0  0  0  0  0  0  0  0  0
   91.8450   98.9690  101.1720 F   0  0  0  0  0  0  0  0  0  0  0  0
   92.7980   97.0280  100.8590 F   0  0  0  0  0  0  0  0  0  0  0  0
   92.9920   98.8770  105.7170 C   0  0  0  0  0  0  0  0  0  0  0  0
   93.1380   98.0230  106.5870 O   0  0  0  0  0  0  0  0  0  0  0  0
   91.7560   99.2400  105.2260 N   0  0  0  0  0  0  0  0  0  0  0  0
   91.7290   99.9130  104.4680 H   0  0  0  0  0  0  0  0  0  0  0  0
   90.5230   98.5890  105.6530 C   0  0  1  0  0  0  0  0  0  0  0  0
   89.8770   97.7930  104.5100 C   0  0  0  0  0  0  0  0  0  0  0  0
   90.7810   97.6920  106.8710 C   0  0  0  0  0  0  0  0  0  0  0  0
   90.6490   96.5210  104.1620 C   0  0  0  0  0  0  0  0  0  0  0  0
   91.5530   96.4170  106.5200 C   0  0  0  0  0  0  0  0  0  0  0  0
   90.9270   95.6140  105.3700 C   0  0  1  0  0  0  0  0  0  0  0  0
   89.6890   94.8360  105.8100 C   0  0  0  0  0  0  0  0  0  0  0  0
   88.9130   95.5320  106.6620 F   0  0  0  0  0  0  0  0  0  0  0  0
   88.9300   94.4990  104.7450 F   0  0  0  0  0  0  0  0  0  0  0  0
   90.0450   93.6870  106.4270 F   0  0  0  0  0  0  0  0  0  0  0  0
   99.7340  103.0210  106.3670 C   0  0  0  0  0  0  0  0  0  0  0  0
   99.4730  103.5740  107.6370 C   0  0  0  0  0  0  0  0  0  0  0  0
  100.9600  102.3400  106.1720 C   0  0  0  0  0  0  0  0  0  0  0  0
  100.3990  103.4460  108.6730 C   0  0  0  0  0  0  0  0  0  0  0  0
  101.9110  102.2290  107.2050 C   0  0  0  0  0  0  0  0  0  0  0  0
  101.6050  102.7810  108.4590 C   0  0  0  0  0  0  0  0  0  0  0  0
   97.9730  104.3590  108.0060 Cl  0  0  0  0  0  0  0  0  0  0  0  0
  101.2670  101.6110  104.6210 Cl  0  0  0  0  0  0  0  0  0  0  0  0
  103.2320  101.5220  107.0300 C   0  0  0  0  0  0  0  0  0  0  0  0
  103.4140  100.4870  108.0200 N   0  0  0  0  0  0  0  0  0  0  0  0
  103.0370   99.1820  107.7900 C   0  0  0  0  0  0  0  0  0  0  0  0
  102.4720   98.8390  106.7540 O   0  0  0  0  0  0  0  0  0  0  0  0
  103.9740  100.7140  108.8290 H   0  0  0  0  0  0  0  0  0  0  0  0
  103.3720   98.1960  108.9260 C   0  0  0  0  0  0  0  0  0  0  0  0
  102.2770   97.1240  109.0300 C   0  0  0  0  0  0  0  0  0  0  0  0
  104.7340   97.5350  108.6580 C   0  0  0  0  0  0  0  0  0  0  0  0
  103.4460   98.9580  110.2600 C   0  0  0  0  0  0  0  0  0  0  0  0
  1  2  1  0  0  0  0
  1 32  1  0  0  0  0
  3  1  1  0  0  0  0
  3  6  2  0  0  0  0
  4  5  1  0  0  0  0
  4  3  1  0  0  0  0
  5  8  1  0  0  0  0
  7  9  1  0  0  0  0
  7  5  2  0  0  0  0
  8 10  2  0  0  0  0
  8  6  1  0  0  0  0
  9 11  2  0  0  0  0
 11 18  1  0  0  0  0
 11 10  1  0  0  0  0
 12  4  1  0  0  0  0
 13  9  1  0  0  0  0
 14 13  1  0  0  0  0
 15 17  1  0  0  0  0
 15 16  1  0  0  0  0
 15 14  1  0  0  0  0
 18 19  2  0  0  0  0
 20 18  1  0  0  0  0
 21 20  1  0  0  0  0
 22 20  1  6  0  0  0
 22 24  1  0  0  0  0
 23 22  1  0  0  0  0
 25 23  1  0  0  0  0
 25 27  1  0  0  0  0
 26 24  1  0  0  0  0
 27 28  1  1  0  0  0
 27 26  1  0  0  0  0
 28 31  1  0  0  0  0
 28 29  1  0  0  0  0
 30 28  1  0  0  0  0
 32 33  1  0  0  0  0
 33 38  1  0  0  0  0
 33 35  2  0  0  0  0
 34 32  2  0  0  0  0
 34 36  1  0  0  0  0
 36 37  2  0  0  0  0
 37 35  1  0  0  0  0
 39 34  1  0  0  0  0
 40 36  1  0  0  0  0
 40 41  1  0  0  0  0
 41 44  1  0  0  0  0
 42 41  1  0  0  0  0
 42 45  1  0  0  0  0
 43 42  2  0  0  0  0
 45 46  1  0  0  0  0
 45 48  1  0  0  0  0
 47 45  1  0  0  0  0
M  END
>  <minimizedAffinity>
-6.50134706

>  <CNNscore>
0.345821589

>  <CNNaffinity>
7.67491007

$$$$
