
 OpenBabel07312609063D

 41 45  0  0  0  0  0  0  0  0999 V2000
   98.2170  101.0220  104.1430 C   0  0  0  0  0  0  0  0  0  0  0  0
   97.5140  102.2250  104.0960 C   0  0  0  0  0  0  0  0  0  0  0  0
   96.5690  102.1450  103.0260 C   0  0  0  0  0  0  0  0  0  0  0  0
   95.5930  102.9790  102.4540 C   0  0  0  0  0  0  0  0  0  0  0  0
   94.8700  102.5230  101.4120 N   0  0  0  0  0  0  0  0  0  0  0  0
   95.1150  101.2780  100.9630 C   0  0  0  0  0  0  0  0  0  0  0  0
   96.0180  100.3960  101.4180 N   0  0  0  0  0  0  0  0  0  0  0  0
   96.7150  100.8890  102.4570 C   0  0  0  0  0  0  0  0  0  0  0  0
   97.6970  100.2180  103.1440 N   0  0  0  0  0  0  0  0  0  0  0  0
   98.0920   98.8540  102.8650 C   0  0  0  0  0  0  0  0  0  0  0  0
   99.2690  100.5870  105.0620 C   0  0  0  0  0  0  0  0  0  0  0  0
  101.3230   99.7950  106.8230 C   0  0  0  0  0  0  0  0  0  0  0  0
  100.4060  100.7770  107.2000 C   0  0  0  0  0  0  0  0  0  0  0  0
  101.2000   99.2080  105.5570 C   0  0  0  0  0  0  0  0  0  0  0  0
   99.3880  101.1730  106.3250 C   0  0  0  0  0  0  0  0  0  0  0  0
  100.1810   99.5990  104.6820 C   0  0  0  0  0  0  0  0  0  0  0  0
  102.3800   99.3480  107.6410 N   0  0  0  0  0  0  0  0  0  0  0  0
  103.2750   98.3310  107.3790 C   0  0  0  0  0  0  0  0  0  0  0  0
  103.2970   97.5920  106.4030 O   0  0  0  0  0  0  0  0  0  0  0  0
  102.4590   99.7940  108.5460 H   0  0  0  0  0  0  0  0  0  0  0  0
  104.2590   98.1200  108.4880 C   0  0  0  0  0  0  0  0  0  0  0  0
  103.9010   98.2940  109.7720 C   0  0  0  0  0  0  0  0  0  0  0  0
  105.6490   97.7730  108.0540 C   0  0  0  0  0  0  0  0  0  0  0  0
   97.7450  103.3170  105.0300 C   0  0  0  0  0  0  0  0  0  0  0  0
   98.9720  103.9960  105.0200 C   0  0  0  0  0  0  0  0  0  0  0  0
   96.7450  103.7080  105.9250 C   0  0  0  0  0  0  0  0  0  0  0  0
   99.1950  105.0630  105.8950 C   0  0  0  0  0  0  0  0  0  0  0  0
   96.9730  104.7710  106.7930 C   0  0  0  0  0  0  0  0  0  0  0  0
   98.1970  105.4400  106.7940 C   0  0  0  0  0  0  0  0  0  0  0  0
   95.9860  105.1540  107.6190 F   0  0  0  0  0  0  0  0  0  0  0  0
   98.4330  106.5290  107.5930 O   0  0  0  0  0  0  0  0  0  0  0  0
   99.3330  107.4670  107.1060 C   0  0  0  0  0  0  0  0  0  0  0  0
  100.4870  107.0530  106.5490 N   0  0  0  0  0  0  0  0  0  0  0  0
   98.9030  108.7390  107.1520 N   0  0  0  0  0  0  0  0  0  0  0  0
  101.2690  108.0210  106.0410 C   0  0  0  0  0  0  0  0  0  0  0  0
   99.7220  109.6740  106.6330 C   0  0  0  0  0  0  0  0  0  0  0  0
  100.9350  109.3560  106.0550 C   0  0  0  0  0  0  0  0  0  0  0  0
   99.2610  111.0980  106.6860 C   0  0  0  0  0  0  0  0  0  0  0  0
   95.3210  104.2710  102.8810 N   0  0  0  0  0  0  0  0  0  0  0  0
   94.7810  104.7720  102.1860 H   0  0  0  0  0  0  0  0  0  0  0  0
   96.1090  104.7610  103.2830 H   0  0  0  0  0  0  0  0  0  0  0  0
  1 11  1  0  0  0  0
  2  1  2  0  0  0  0
  2 24  1  0  0  0  0
  3  2  1  0  0  0  0
  4 39  1  0  0  0  0
  4  3  2  0  0  0  0
  5  4  1  0  0  0  0
  6  5  2  0  0  0  0
  6  7  1  0  0  0  0
  7  8  2  0  0  0  0
  8  3  1  0  0  0  0
  8  9  1  0  0  0  0
  9  1  1  0  0  0  0
 10  9  1  0  0  0  0
 11 15  1  0  0  0  0
 12 13  1  0  0  0  0
 12 17  1  0  0  0  0
 14 12  2  0  0  0  0
 15 13  2  0  0  0  0
 16 11  2  0  0  0  0
 16 14  1  0  0  0  0
 17 20  1  0  0  0  0
 18 17  1  0  0  0  0
 18 21  1  0  0  0  0
 19 18  2  0  0  0  0
 21 22  2  0  0  0  0
 23 21  1  0  0  0  0
 24 26  1  0  0  0  0
 25 24  2  0  0  0  0
 25 27  1  0  0  0  0
 26 28  2  0  0  0  0
 27 29  2  0  0  0  0
 28 29  1  0  0  0  0
 28 30  1  0  0  0  0
 29 31  1  0  0  0  0
 32 34  1  0  0  0  0
 32 31  1  0  0  0  0
 33 32  2  0  0  0  0
 35 37  2  0  0  0  0
 35 33  1  0  0  0  0
 36 38  1  0  0  0  0
 36 34  2  0  0  0  0
 37 36  1  0  0  0  0
 39 41  1  0  0  0  0
 40 39  1  0  0  0  0
M  END
>  <minimizedAffinity>
-9.69267368

>  <CNNscore>
0.222094208

>  <CNNaffinity>
7.96193695

$$$$
