
 OpenBabel08012602183D

 33 36  0  0  0  0  0  0  0  0999 V2000
   97.4470  103.9100  106.2050 C   0  0  0  0  0  0  0  0  0  0  0  0
   96.5690  104.6150  105.3630 C   0  0  0  0  0  3  0  0  0  0  0  0
   95.8820  103.9960  104.3110 C   0  0  0  0  0  3  0  0  0  0  0  0
   96.1290  102.6400  104.1240 C   0  0  0  0  0  0  0  0  0  0  0  0
   95.6480  101.7280  103.2200 N   0  0  0  0  0  0  0  0  0  0  0  0
   96.2490  100.5140  103.4600 C   0  0  0  0  0  0  0  0  0  0  0  0
   97.0700  100.6030  104.4870 N   0  0  0  0  0  0  0  0  0  0  0  0
   97.0090  101.9080  104.9090 C   0  0  0  0  0  0  0  0  0  0  0  0
   97.6820  102.5430  105.9630 C   0  0  0  0  0  3  0  0  0  0  0  0
   94.9830  101.9230  102.4850 H   0  0  0  0  0  0  0  0  0  0  0  0
   98.1530  104.6040  107.2950 C   0  0  0  0  0  0  0  0  0  0  0  0
   99.0950  105.6560  107.1080 C   0  0  0  0  0  0  0  0  0  0  0  0
   99.6600  106.2340  108.2710 C   0  0  0  0  0  3  0  0  0  0  0  0
   99.3410  105.7900  109.5560 C   0  0  0  0  0  3  0  0  0  0  0  0
   97.8460  104.1760  108.6090 C   0  0  0  0  0  3  0  0  0  0  0  0
   98.4340  104.7590  109.7270 C   0  0  0  0  0  3  0  0  0  0  0  0
   99.4740  106.2300  105.7300 C   0  0  0  0  0  0  0  0  0  0  0  0
  100.3410  107.4880  105.8960 C   0  0  0  0  0  1  0  0  0  0  0  0
  100.2290  105.2410  104.8190 C   0  0  0  0  0  1  0  0  0  0  0  0
   98.3060  106.5500  104.9670 O   0  0  0  0  0  0  0  0  0  0  0  0
   98.0840  107.4820  105.1410 H   0  0  0  0  0  0  0  0  0  0  0  0
   95.9260   99.4250  102.6150 C   0  0  0  0  0  3  0  0  0  0  0  0
   94.6410   99.1490  102.3390 C   0  0  0  0  0  3  0  0  0  0  0  0
   94.2280   98.0180  101.5020 C   0  0  0  0  0  0  0  0  0  0  0  0
   92.8900   97.8120  101.1470 C   0  0  0  0  0  3  0  0  0  0  0  0
   95.1910   97.0950  101.0820 C   0  0  0  0  0  3  0  0  0  0  0  0
   92.5260   96.7120  100.3650 C   0  0  0  0  0  3  0  0  0  0  0  0
   94.8290   95.9950  100.3000 C   0  0  0  0  0  3  0  0  0  0  0  0
   93.4920   95.7960   99.9250 C   0  0  0  0  0  0  0  0  0  0  0  0
   93.0940   94.5950   99.1020 C   0  0  0  0  0  0  0  0  0  0  0  0
   92.2370   93.7580   99.7550 F   0  0  0  0  0  0  0  0  0  0  0  0
   92.4680   94.9430   97.9440 F   0  0  0  0  0  0  0  0  0  0  0  0
   94.1560   93.8230   98.7360 F   0  0  0  0  0  0  0  0  0  0  0  0
  1 11  1  0  0  0  0
  2  1  2  0  0  0  0
  3  2  1  0  0  0  0
  4  3  2  0  0  0  0
  4  8  1  0  0  0  0
  5  6  1  0  0  0  0
  5  4  1  0  0  0  0
  6  7  2  0  0  0  0
  7  8  1  0  0  0  0
  8  9  2  0  0  0  0
  9  1  1  0  0  0  0
 10  5  1  0  0  0  0
 11 15  1  0  0  0  0
 12 11  2  0  0  0  0
 12 13  1  0  0  0  0
 13 14  2  0  0  0  0
 14 16  1  0  0  0  0
 15 16  2  0  0  0  0
 17 18  1  0  0  0  0
 17 12  1  0  0  0  0
 19 17  1  0  0  0  0
 20 21  1  0  0  0  0
 20 17  1  0  0  0  0
 22  6  1  0  0  0  0
 23 22  2  0  0  0  0
 24 23  1  0  0  0  0
 25 24  1  0  0  0  0
 26 24  2  0  0  0  0
 27 25  2  0  0  0  0
 28 26  1  0  0  0  0
 29 28  2  0  0  0  0
 29 27  1  0  0  0  0
 30 31  1  0  0  0  0
 30 29  1  0  0  0  0
 32 30  1  0  0  0  0
 33 30  1  0  0  0  0
M  END
>  <minimizedAffinity>
-3.8536272

>  <CNNscore>
0.66528362

>  <CNNaffinity>
6.29908705

$$$$
