
 OpenBabel07302617243D

 42 46  0  0  1  0  0  0  0  0999 V2000
   91.6490  100.0390  102.0310 C   0  0  0  0  0  0  0  0  0  0  0  0
   91.7510  100.1840  100.6420 C   0  0  0  0  0  0  0  0  0  0  0  0
   92.9730  100.4830  100.0410 C   0  0  0  0  0  0  0  0  0  0  0  0
   94.1230  100.6280  100.8180 C   0  0  0  0  0  0  0  0  0  0  0  0
   94.0670  100.4800  102.2100 C   0  0  0  0  0  0  0  0  0  0  0  0
   92.8240  100.1900  102.7990 C   0  0  0  0  0  0  0  0  0  0  0  0
   90.3490   99.6590  102.7440 C   0  0  2  0  0  0  0  0  0  0  0  0
   89.3860  100.8720  102.8900 C   0  0  0  0  0  0  0  0  0  0  0  0
   87.9670  100.4980  103.3290 C   0  0  0  0  0  0  0  0  0  0  0  0
   89.3220  101.7010  101.6020 C   0  0  0  0  0  0  0  0  0  0  0  0
   90.5220   98.8780  104.0660 C   0  0  0  0  0  0  0  0  0  0  0  0
   91.4040   99.1340  104.8810 O   0  0  0  0  0  0  0  0  0  0  0  0
   89.5480   97.9180  104.2490 N   0  0  0  0  0  0  0  0  0  0  0  0
   88.8140   97.7730  103.5700 H   0  0  0  0  0  0  0  0  0  0  0  0
   89.3960   97.1350  105.3660 C   0  0  0  0  0  0  0  0  0  0  0  0
   88.7320   95.8970  105.5230 C   0  0  0  0  0  0  0  0  0  0  0  0
   89.9540   97.5460  106.5090 N   0  0  0  0  0  0  0  0  0  0  0  0
   88.9170   95.5670  106.8430 C   0  0  0  0  0  0  0  0  0  0  0  0
   89.6540   96.5720  107.3870 N   0  0  0  0  0  0  0  0  0  0  0  0
   89.9870   96.6560  108.3420 H   0  0  0  0  0  0  0  0  0  0  0  0
   88.4260   94.2890  107.5540 C   0  0  0  0  0  0  0  0  0  0  0  0
   87.9800   93.1100  106.7290 C   0  0  0  0  0  0  0  0  0  0  0  0
   89.2770   93.0490  107.4830 C   0  0  0  0  0  0  0  0  0  0  0  0
   95.2810  100.6000  103.0260 C   0  0  0  0  0  0  0  0  0  0  0  0
   95.4370   99.9170  104.2330 C   0  0  0  0  0  0  0  0  0  0  0  0
   96.3460  101.4080  102.6380 C   0  0  0  0  0  0  0  0  0  0  0  0
   96.6090  100.0680  104.9790 C   0  0  0  0  0  0  0  0  0  0  0  0
   97.4910  101.5660  103.3430 N   0  0  0  0  0  0  0  0  0  0  0  0
   97.6140  100.9070  104.5050 C   0  0  0  0  0  0  0  0  0  0  0  0
   98.7750  101.0270  105.2790 N   0  0  0  0  0  0  0  0  0  0  0  0
   98.9540  101.9270  106.3040 C   0  0  0  0  0  0  0  0  0  0  0  0
   98.1460  102.7090  106.7870 O   0  0  0  0  0  0  0  0  0  0  0  0
   99.5130  100.3650  105.1030 H   0  0  0  0  0  0  0  0  0  0  0  0
  100.3050  101.8480  106.9230 C   0  0  0  0  0  0  0  0  0  0  0  0
  101.1850  100.8590  106.6830 C   0  0  0  0  0  0  0  0  0  0  0  0
  102.5880  100.7630  107.2240 C   0  0  0  0  0  0  0  0  0  0  0  0
  102.9890   99.4290  107.6790 N   0  0  0  0  0  0  0  0  0  0  0  0
  102.2790   99.0450  108.9250 C   0  0  0  0  0  0  0  0  0  0  0  0
  104.4430   99.3790  107.9470 C   0  0  0  0  0  0  0  0  0  0  0  0
  102.7440   97.6690  109.4280 C   0  0  0  0  0  0  0  0  0  0  0  0
  104.8650   97.9980  108.4750 C   0  0  0  0  0  0  0  0  0  0  0  0
  104.1580   97.6640  109.6750 O   0  0  0  0  0  0  0  0  0  0  0  0
  1  7  1  0  0  0  0
  1  6  1  0  0  0  0
  2  1  2  0  0  0  0
  3  2  1  0  0  0  0
  3  4  2  0  0  0  0
  4  5  1  0  0  0  0
  5  6  2  0  0  0  0
  5 24  1  0  0  0  0
  7  8  1  1  0  0  0
  7 11  1  0  0  0  0
  8  9  1  0  0  0  0
 10  8  1  0  0  0  0
 11 13  1  0  0  0  0
 11 12  2  0  0  0  0
 13 15  1  0  0  0  0
 14 13  1  0  0  0  0
 15 16  1  0  0  0  0
 15 17  2  0  0  0  0
 16 18  2  0  0  0  0
 17 19  1  0  0  0  0
 18 19  1  0  0  0  0
 18 21  1  0  0  0  0
 19 20  1  0  0  0  0
 22 23  1  0  0  0  0
 22 21  1  0  0  0  0
 23 21  1  0  0  0  0
 24 25  1  0  0  0  0
 25 27  2  0  0  0  0
 26 24  2  0  0  0  0
 26 28  1  0  0  0  0
 28 29  2  0  0  0  0
 29 27  1  0  0  0  0
 29 30  1  0  0  0  0
 30 31  1  0  0  0  0
 31 32  2  0  0  0  0
 31 34  1  0  0  0  0
 33 30  1  0  0  0  0
 35 34  2  0  0  0  0
 35 36  1  0  0  0  0
 36 37  1  0  0  0  0
 37 39  1  0  0  0  0
 37 38  1  0  0  0  0
 38 40  1  0  0  0  0
 39 41  1  0  0  0  0
 40 42  1  0  0  0  0
 41 42  1  0  0  0  0
M  END
>  <minimizedAffinity>
-7.73367453

>  <CNNscore>
0.408699036

>  <CNNaffinity>
6.86953497

$$$$
