
 OpenBabel07312606453D

 32 36  0  0  1  0  0  0  0  0999 V2000
   96.5570  102.6450  104.9390 C   0  0  1  0  0  0  0  0  0  0  0  0
   95.6360  101.3980  104.9580 C   0  0  0  0  0  0  0  0  0  0  0  0
   95.7550  101.7720  103.4550 C   0  0  2  0  0  0  0  0  0  0  0  0
   97.2690  101.9810  103.7300 C   0  0  0  0  0  0  0  0  0  0  0  0
   95.5720  103.2480  103.9050 C   0  0  0  0  0  0  0  0  0  0  0  0
   97.1810  103.2900  106.0390 N   0  0  0  0  0  0  0  0  0  0  0  0
   95.7300  105.0630  106.0910 O   0  0  0  0  0  0  0  0  0  0  0  0
   96.7120  104.4910  106.5500 C   0  0  0  0  0  0  0  0  0  0  0  0
   98.0310  102.9090  106.4430 H   0  0  0  0  0  0  0  0  0  0  0  0
   97.5330  105.0120  107.7320 C   0  0  0  0  0  0  0  0  0  0  0  0
   98.1190  106.2720  107.4310 O   0  0  0  0  0  0  0  0  0  0  0  0
   99.2130  106.2730  106.6110 C   0  0  0  0  0  0  0  0  0  0  0  0
   99.9690  107.3890  106.2420 C   0  0  0  0  0  0  0  0  0  0  0  0
   99.5740  105.0110  106.1270 C   0  0  0  0  0  0  0  0  0  0  0  0
  101.0760  107.2410  105.3960 C   0  0  0  0  0  0  0  0  0  0  0  0
  100.6760  104.8600  105.2810 C   0  0  0  0  0  0  0  0  0  0  0  0
  101.4240  105.9780  104.9190 C   0  0  0  0  0  0  0  0  0  0  0  0
  102.7870  105.8020  103.8820 Cl  0  0  0  0  0  0  0  0  0  0  0  0
   95.1200  101.0930  102.2920 C   0  0  0  0  0  0  0  0  0  0  0  0
   95.6710  100.0960  101.6340 N   0  0  0  0  0  0  0  0  0  0  0  0
   93.8950  101.4370  101.7840 O   0  0  0  0  0  0  0  0  0  0  0  0
   94.7920   99.7470  100.6320 N   0  0  0  0  0  0  0  0  0  0  0  0
   93.7530  100.5470  100.7520 C   0  0  0  0  0  0  0  0  0  0  0  0
   92.5120  100.5200   99.8060 C   0  0  1  0  0  0  0  0  0  0  0  0
   91.4480   99.4560  100.1460 C   0  0  0  0  0  0  0  0  0  0  0  0
   91.4490  101.5950  100.1180 C   0  0  0  0  0  0  0  0  0  0  0  0
   90.6600  100.5370  100.9210 C   0  0  2  0  0  0  0  0  0  0  0  0
   90.8590  100.5910  102.3490 O   0  0  0  0  0  0  0  0  0  0  0  0
   89.9560   99.8100  103.1090 C   0  0  0  0  0  0  0  0  0  0  0  0
   88.9060   99.4620  102.3410 F   0  0  0  0  0  0  0  0  0  0  0  0
   90.5730   98.6910  103.5380 F   0  0  0  0  0  0  0  0  0  0  0  0
   89.5190  100.5060  104.1750 F   0  0  0  0  0  0  0  0  0  0  0  0
  1  2  1  0  0  0  0
  1  6  1  1  0  0  0
  3 19  1  6  0  0  0
  3  4  1  0  0  0  0
  3  5  1  0  0  0  0
  3  2  1  0  0  0  0
  4  1  1  0  0  0  0
  5  1  1  0  0  0  0
  6  9  1  0  0  0  0
  6  8  1  0  0  0  0
  7  8  2  0  0  0  0
  8 10  1  0  0  0  0
 11 10  1  0  0  0  0
 12 11  1  0  0  0  0
 13 12  1  0  0  0  0
 14 12  2  0  0  0  0
 15 13  2  0  0  0  0
 16 14  1  0  0  0  0
 17 16  2  0  0  0  0
 17 15  1  0  0  0  0
 18 17  1  0  0  0  0
 20 19  2  0  0  0  0
 21 19  1  0  0  0  0
 22 23  2  0  0  0  0
 22 20  1  0  0  0  0
 23 21  1  0  0  0  0
 24 26  1  0  0  0  0
 24 25  1  0  0  0  0
 24 23  1  1  0  0  0
 25 27  1  0  0  0  0
 26 27  1  0  0  0  0
 27 28  1  1  0  0  0
 28 29  1  0  0  0  0
 29 31  1  0  0  0  0
 29 32  1  0  0  0  0
 30 29  1  0  0  0  0
M  END
>  <minimizedAffinity>
-7.33501005

>  <CNNscore>
0.507685423

>  <CNNaffinity>
6.04931498

$$$$
