
 OpenBabel07312620173D

 33 37  0  0  1  0  0  0  0  0999 V2000
   99.4680   99.5280  103.9090 N   0  0  0  0  0  0  0  0  0  0  0  0
   98.6820   98.3120  103.7740 C   0  0  0  0  0  2  0  0  0  0  0  0
   97.2850   98.8840  103.4720 C   0  0  1  0  0  3  0  0  0  0  0  0
   96.7460   99.5620  104.7520 C   0  0  0  0  0  2  0  0  0  0  0  0
   97.6050  100.8480  104.8590 C   0  0  2  0  0  3  0  0  0  0  0  0
   98.5790  100.6770  103.6600 C   0  0  2  0  0  3  0  0  0  0  0  0
   97.6390  100.0960  102.6030 C   0  0  0  0  0  2  0  0  0  0  0  0
  100.7270   99.5140  104.4660 C   0  0  0  0  0  0  0  0  0  0  0  0
  101.3360   98.4840  104.7410 O   0  0  0  0  0  0  0  0  0  0  0  0
  101.3610  100.8100  104.7800 C   0  0  0  0  0  0  0  0  0  0  0  0
  101.1060  101.8720  103.8970 C   0  0  0  0  0  3  0  0  0  0  0  0
  102.1660  100.9810  105.9200 C   0  0  0  0  0  0  0  0  0  0  0  0
  101.6880  103.1180  104.1180 C   0  0  0  0  0  3  0  0  0  0  0  0
  102.7390  102.2440  106.1100 C   0  0  0  0  0  0  0  0  0  0  0  0
  102.5130  103.3000  105.2240 C   0  0  0  0  0  3  0  0  0  0  0  0
  103.5170  102.4810  107.1790 F   0  0  0  0  0  0  0  0  0  0  0  0
  102.3950   99.9170  106.8860 C   0  0  0  0  0  0  0  0  0  0  0  0
  101.6630   99.9350  108.0150 N   0  0  0  0  0  0  0  0  0  0  0  0
  103.3090   98.9760  106.5730 N   0  0  0  0  0  0  0  0  0  0  0  0
  101.8770   98.9280  108.8810 C   0  0  0  0  0  3  0  0  0  0  0  0
  103.4880   98.0000  107.4830 C   0  0  0  0  0  3  0  0  0  0  0  0
  102.7890   97.9230  108.6650 C   0  0  0  0  0  3  0  0  0  0  0  0
   98.3240  100.9490  106.0840 O   0  0  0  0  0  0  0  0  0  0  0  0
   98.5120  102.2400  106.5290 C   0  0  0  0  0  0  0  0  0  0  0  0
   99.3250  102.3950  107.6390 C   0  0  0  0  0  3  0  0  0  0  0  0
   97.9230  103.2700  105.8870 N   0  0  0  0  0  0  0  0  0  0  0  0
   99.5410  103.6810  108.1280 C   0  0  0  0  0  3  0  0  0  0  0  0
   98.1510  104.5090  106.3810 C   0  0  0  0  0  3  0  0  0  0  0  0
   98.9370  104.7710  107.4950 C   0  0  0  0  0  0  0  0  0  0  0  0
   99.1460  106.1800  107.9570 C   0  0  0  0  0  0  0  0  0  0  0  0
   97.9870  106.8900  107.9910 F   0  0  0  0  0  0  0  0  0  0  0  0
   99.6730  106.2600  109.2100 F   0  0  0  0  0  0  0  0  0  0  0  0
   99.9930  106.8830  107.1540 F   0  0  0  0  0  0  0  0  0  0  0  0
  1  8  1  0  0  0  0
  2  1  1  0  0  0  0
  3  7  1  6  0  0  0
  3  2  1  0  0  0  0
  3  4  1  0  0  0  0
  4  5  1  0  0  0  0
  5 23  1  1  0  0  0
  6  7  1  6  0  0  0
  6  1  1  0  0  0  0
  6  5  1  0  0  0  0
  8  9  2  0  0  0  0
  8 10  1  0  0  0  0
 10 12  1  0  0  0  0
 11 13  1  0  0  0  0
 11 10  2  0  0  0  0
 12 14  2  0  0  0  0
 12 17  1  0  0  0  0
 13 15  2  0  0  0  0
 14 16  1  0  0  0  0
 15 14  1  0  0  0  0
 17 18  2  0  0  0  0
 18 20  1  0  0  0  0
 19 17  1  0  0  0  0
 19 21  2  0  0  0  0
 21 22  1  0  0  0  0
 22 20  2  0  0  0  0
 23 24  1  0  0  0  0
 24 25  1  0  0  0  0
 25 27  2  0  0  0  0
 26 28  1  0  0  0  0
 26 24  2  0  0  0  0
 28 29  2  0  0  0  0
 29 30  1  0  0  0  0
 29 27  1  0  0  0  0
 30 31  1  0  0  0  0
 30 32  1  0  0  0  0
 33 30  1  0  0  0  0
M  END
>  <minimizedAffinity>
-8.98656845

>  <CNNscore>
0.734004319

>  <CNNaffinity>
7.77240038

$$$$
