
 OpenBabel07302620543D

 29 33  0  0  1  0  0  0  0  0999 V2000
  101.7750  102.6650  103.5550 O   0  0  0  0  0  0  0  0  0  0  0  0
  101.2310  101.7900  104.2250 C   0  0  0  0  0  0  0  0  0  0  0  0
  101.7080  101.4690  105.5730 C   0  0  0  0  0  0  0  0  0  0  0  0
  101.5700  102.3500  106.6320 C   0  0  0  0  0  0  0  0  0  0  0  0
  102.3040  100.2390  106.0230 C   0  0  0  0  0  0  0  0  0  0  0  0
  102.2070  101.7370  108.0950 S   0  0  0  0  0  0  0  0  0  0  0  0
  102.6340  100.2600  107.3610 C   0  0  0  0  0  0  0  0  0  0  0  0
  103.3100   99.0820  108.1190 C   0  0  0  0  0  0  0  0  0  0  0  0
  102.7450   98.2030  109.0650 C   0  0  0  0  0  0  0  0  0  0  0  0
  104.6160   98.6720  107.9990 C   0  0  0  0  0  0  0  0  0  0  0  0
  103.6290   97.3060  109.5140 N   0  0  0  0  0  0  0  0  0  0  0  0
  104.7550   97.6120  108.8470 N   0  0  0  0  0  0  0  0  0  0  0  0
  105.5830   97.0520  109.0230 H   0  0  0  0  0  0  0  0  0  0  0  0
  100.1140  101.0840  103.7760 N   0  0  0  0  0  0  0  0  0  0  0  0
   99.2550  100.3480  104.6970 C   0  0  2  0  0  0  0  0  0  0  0  0
  100.2520  100.2100  102.6200 C   0  0  1  0  0  0  0  0  0  0  0  0
   99.8500   98.9310  104.6430 C   0  0  0  0  0  0  0  0  0  0  0  0
   97.8180  100.4180  104.1610 C   0  0  0  0  0  0  0  0  0  0  0  0
  100.5120   98.8400  103.2590 C   0  0  0  0  0  0  0  0  0  0  0  0
   98.9320  100.2700  101.8340 C   0  0  0  0  0  0  0  0  0  0  0  0
   97.6960   99.9290  102.6990 C   0  0  1  0  0  0  0  0  0  0  0  0
   97.5880   98.4840  102.7410 O   0  0  0  0  0  0  0  0  0  0  0  0
   96.7440   98.2750  102.2870 H   0  0  0  0  0  0  0  0  0  0  0  0
   96.4280  100.4970  102.0480 C   0  0  0  0  0  0  0  0  0  0  0  0
   96.2890  101.8450  102.0680 N   0  0  0  0  0  0  0  0  0  0  0  0
   95.5310   99.6480  101.5080 N   0  0  0  0  0  0  0  0  0  0  0  0
   95.1680  102.3400  101.5090 C   0  0  0  0  0  0  0  0  0  0  0  0
   94.4290  100.2020  100.9670 C   0  0  0  0  0  0  0  0  0  0  0  0
   94.1940  101.5560  100.9390 C   0  0  0  0  0  0  0  0  0  0  0  0
  1  2  2  0  0  0  0
  2  3  1  0  0  0  0
  3  5  1  0  0  0  0
  3  4  2  0  0  0  0
  4  6  1  0  0  0  0
  5  7  2  0  0  0  0
  7  6  1  0  0  0  0
  7  8  1  0  0  0  0
  8  9  1  0  0  0  0
  9 11  2  0  0  0  0
 10  8  2  0  0  0  0
 10 12  1  0  0  0  0
 12 13  1  0  0  0  0
 12 11  1  0  0  0  0
 14  2  1  0  0  0  0
 14 15  1  0  0  0  0
 15 18  1  6  0  0  0
 16 20  1  1  0  0  0
 16 19  1  0  0  0  0
 16 14  1  0  0  0  0
 17 15  1  0  0  0  0
 19 17  1  0  0  0  0
 20 21  1  0  0  0  0
 21 22  1  1  0  0  0
 21 18  1  0  0  0  0
 23 22  1  0  0  0  0
 24 25  1  0  0  0  0
 24 21  1  0  0  0  0
 26 24  2  0  0  0  0
 27 25  2  0  0  0  0
 28 26  1  0  0  0  0
 29 28  2  0  0  0  0
 29 27  1  0  0  0  0
M  END
>  <minimizedAffinity>
-9.27082634

>  <CNNscore>
0.900571108

>  <CNNaffinity>
7.43085718

$$$$
