
 OpenBabel08012600073D

 25 26  0  0  0  0  0  0  0  0999 V2000
   95.8750  104.6550  104.7890 O   0  0  0  0  0  0  0  0  0  0  0  0
   96.7820  104.1170  105.4110 C   0  0  0  0  0  0  0  0  0  0  0  0
   97.1730  102.7980  105.3360 N   0  0  0  0  0  0  0  0  0  0  0  0
   97.8740  102.4660  105.9940 H   0  0  0  0  0  0  0  0  0  0  0  0
   97.5700  104.9420  106.3560 C   0  0  0  0  0  0  0  0  0  0  0  0
   98.1940  106.1150  105.9030 C   0  0  0  0  0  0  0  0  0  0  0  0
   97.7330  104.5310  107.6910 C   0  0  0  0  0  0  0  0  0  0  0  0
   98.9950  106.8630  106.7690 C   0  0  0  0  0  0  0  0  0  0  0  0
   98.5420  105.2980  108.5490 C   0  0  0  0  0  0  0  0  0  0  0  0
   99.1750  106.4570  108.0870 C   0  0  0  0  0  3  0  0  0  0  0  0
   96.8980  103.1390  108.3080 Cl  0  0  0  0  0  0  0  0  0  0  0  0
   99.7690  108.3020  106.2180 Cl  0  0  0  0  0  0  0  0  0  0  0  0
   98.8010  104.8800  110.2080 Cl  0  0  0  0  0  0  0  0  0  0  0  0
   98.0150  106.5250  104.6060 O   0  0  0  0  0  0  0  0  0  0  0  0
   98.5850  107.3010  104.4430 H   0  0  0  0  0  0  0  0  0  0  0  0
   96.6460  101.7830  104.5100 C   0  0  0  0  0  0  0  0  0  0  0  0
   97.2810  100.5650  104.2620 C   0  0  0  0  0  3  0  0  0  0  0  0
   95.4000  102.0340  103.9180 C   0  0  0  0  0  0  0  0  0  0  0  0
   96.6740   99.6220  103.4260 C   0  0  0  0  0  0  0  0  0  0  0  0
   94.8010  101.0860  103.0850 C   0  0  0  0  0  0  0  0  0  0  0  0
   95.4370   99.8740  102.8350 C   0  0  0  0  0  3  0  0  0  0  0  0
   97.4620   98.1220  103.1220 Cl  0  0  0  0  0  0  0  0  0  0  0  0
   93.2690  101.4060  102.3600 Cl  0  0  0  0  0  0  0  0  0  0  0  0
   94.7880  103.2390  104.1830 O   0  0  0  0  0  0  0  0  0  0  0  0
   93.9450  103.2430  103.6900 H   0  0  0  0  0  0  0  0  0  0  0  0
  1  2  2  0  0  0  0
  2  5  1  0  0  0  0
  3  2  1  0  0  0  0
  3  4  1  0  0  0  0
  5  7  1  0  0  0  0
  6  5  2  0  0  0  0
  6  8  1  0  0  0  0
  7 11  1  0  0  0  0
  7  9  2  0  0  0  0
  8 10  2  0  0  0  0
  9 13  1  0  0  0  0
 10  9  1  0  0  0  0
 12  8  1  0  0  0  0
 14  6  1  0  0  0  0
 15 14  1  0  0  0  0
 16  3  1  0  0  0  0
 17 16  1  0  0  0  0
 18 24  1  0  0  0  0
 18 16  2  0  0  0  0
 19 17  2  0  0  0  0
 20 18  1  0  0  0  0
 21 20  2  0  0  0  0
 21 19  1  0  0  0  0
 22 19  1  0  0  0  0
 23 20  1  0  0  0  0
 25 24  1  0  0  0  0
M  END
>  <minimizedAffinity>
-7.56175566

>  <CNNscore>
0.809301257

>  <CNNaffinity>
7.07512712

$$$$
