
 OpenBabel07312601333D

 46 52  0  0  0  0  0  0  0  0999 V2000
  101.3950   98.0220  104.2200 C   0  0  0  0  0  0  0  0  0  0  0  0
  101.3580   99.4440  104.4480 N   0  0  0  0  0  0  0  0  0  0  0  0
  100.8970  100.4250  103.5920 C   0  0  0  0  0  0  0  0  0  0  0  0
  101.0880  101.6250  104.1200 N   0  0  0  0  0  0  0  0  0  0  0  0
  101.6320  101.4170  105.3570 C   0  0  0  0  0  0  0  0  0  0  0  0
  101.9890  102.3520  106.3370 C   0  0  0  0  0  0  0  0  0  0  0  0
  102.5390  101.8920  107.5410 C   0  0  0  0  0  0  0  0  0  0  0  0
  102.7580  100.5260  107.7630 C   0  0  0  0  0  0  0  0  0  0  0  0
  102.3990   99.5820  106.7840 C   0  0  0  0  0  0  0  0  0  0  0  0
  101.8290  100.0610  105.5910 C   0  0  0  0  0  0  0  0  0  0  0  0
  100.2670  100.3320  102.1340 C   0  0  0  0  0  0  0  0  0  0  0  0
  100.7970   99.3330  101.0820 C   0  0  0  0  0  0  0  0  0  0  0  0
  100.7550  101.4800  101.2000 C   0  0  0  0  0  0  0  0  0  0  0  0
  101.6000  100.4620  100.4220 C   0  0  0  0  0  0  0  0  0  0  0  0
   98.7820  100.3630  102.2910 N   0  0  0  0  0  0  0  0  0  0  0  0
   97.9100  100.1230  101.2450 C   0  0  0  0  0  0  0  0  0  0  0  0
   98.2480  100.0500  100.0670 O   0  0  0  0  0  0  0  0  0  0  0  0
   98.4580  100.0100  103.1870 H   0  0  0  0  0  0  0  0  0  0  0  0
   96.4760   99.9450  101.6220 C   0  0  0  0  0  0  0  0  0  0  0  0
   95.5000  100.3250  100.7010 C   0  0  0  0  0  0  0  0  0  0  0  0
   96.1070   99.4420  102.8810 C   0  0  0  0  0  0  0  0  0  0  0  0
   94.1410  100.1860  101.0070 C   0  0  0  0  0  0  0  0  0  0  0  0
   94.7350   99.3070  103.1750 C   0  0  0  0  0  0  0  0  0  0  0  0
   93.7450   99.6640  102.2590 C   0  0  0  0  0  0  0  0  0  0  0  0
   94.0880   98.8520  104.3060 N   0  0  0  0  0  0  0  0  0  0  0  0
   92.4670   99.3900  102.8580 C   0  0  0  0  0  0  0  0  0  0  0  0
   92.7140   98.8760  104.1340 C   0  0  0  0  0  0  0  0  0  0  0  0
   94.7570   98.4200  105.5190 C   0  0  0  0  0  0  0  0  0  0  0  0
   91.1450   99.6180  102.1680 C   0  0  0  0  0  0  0  0  0  0  0  0
   91.1180  100.8470  101.2530 C   0  0  0  0  0  0  0  0  0  0  0  0
   89.9170   99.7420  103.0860 C   0  0  0  0  0  0  0  0  0  0  0  0
   89.6480  101.2350  101.2090 C   0  0  0  0  0  0  0  0  0  0  0  0
   89.1780  101.0010  102.6350 C   0  0  0  0  0  0  0  0  0  0  0  0
   91.7950   98.4140  105.1660 C   0  0  0  0  0  0  0  0  0  0  0  0
   91.8730   99.0220  106.3640 N   0  0  0  0  0  0  0  0  0  0  0  0
   90.9310   97.4410  104.8340 N   0  0  0  0  0  0  0  0  0  0  0  0
   91.0200   98.5720  107.3080 C   0  0  0  0  0  0  0  0  0  0  0  0
   90.0960   97.0380  105.8150 C   0  0  0  0  0  0  0  0  0  0  0  0
   90.1010   97.5710  107.0850 C   0  0  0  0  0  0  0  0  0  0  0  0
   88.9290   96.9740  108.4240 Br  0  0  0  0  0  0  0  0  0  0  0  0
  103.3120  100.1000  109.0540 C   0  0  0  0  0  0  0  0  0  0  0  0
  103.3440   98.8160  109.4450 C   0  0  0  0  0  0  0  0  0  0  0  0
  103.8920   98.3740  110.7340 C   0  0  0  0  0  0  0  0  0  0  0  0
  103.3870   98.6180  111.8160 O   0  0  0  0  0  0  0  0  0  0  0  0
  105.0330   97.6770  110.6330 O   0  0  0  0  0  0  0  0  0  0  0  0
  105.2640   97.4710  111.5630 H   0  0  0  0  0  0  0  0  0  0  0  0
  1  2  1  0  0  0  0
  2 10  1  0  0  0  0
  3  4  2  0  0  0  0
  3  2  1  0  0  0  0
  4  5  1  0  0  0  0
  5 10  2  0  0  0  0
  5  6  1  0  0  0  0
  6  7  2  0  0  0  0
  7  8  1  0  0  0  0
  8 41  1  0  0  0  0
  9  8  2  0  0  0  0
 10  9  1  0  0  0  0
 11 15  1  0  0  0  0
 11  3  1  0  0  0  0
 12 11  1  0  0  0  0
 13 11  1  0  0  0  0
 14 12  1  0  0  0  0
 14 13  1  0  0  0  0
 15 18  1  0  0  0  0
 16 19  1  0  0  0  0
 16 15  1  0  0  0  0
 17 16  2  0  0  0  0
 19 21  1  0  0  0  0
 20 22  1  0  0  0  0
 20 19  2  0  0  0  0
 21 23  2  0  0  0  0
 22 24  2  0  0  0  0
 23 25  1  0  0  0  0
 24 26  1  0  0  0  0
 24 23  1  0  0  0  0
 25 28  1  0  0  0  0
 26 27  2  0  0  0  0
 27 25  1  0  0  0  0
 27 34  1  0  0  0  0
 29 26  1  0  0  0  0
 29 31  1  0  0  0  0
 30 29  1  0  0  0  0
 32 30  1  0  0  0  0
 32 33  1  0  0  0  0
 33 31  1  0  0  0  0
 34 35  1  0  0  0  0
 35 37  2  0  0  0  0
 36 34  2  0  0  0  0
 36 38  1  0  0  0  0
 38 39  2  0  0  0  0
 39 37  1  0  0  0  0
 39 40  1  0  0  0  0
 41 42  2  0  0  0  0
 42 43  1  0  0  0  0
 43 44  2  0  0  0  0
 45 43  1  0  0  0  0
 45 46  1  0  0  0  0
M  END
>  <minimizedAffinity>
-5.4481411

>  <CNNscore>
0.361062914

>  <CNNaffinity>
7.76976252

$$$$
