
 OpenBabel07302618213D

 34 37  0  0  1  0  0  0  0  0999 V2000
   96.0410  103.8990  104.3120 C   0  0  0  0  0  0  0  0  0  0  0  0
   94.8580  103.8450  103.9850 O   0  0  0  0  0  0  0  0  0  0  0  0
   96.6660  105.0310  104.7330 O   0  0  0  0  0  0  0  0  0  0  0  0
   96.7600  105.1730  106.1550 C   0  0  0  0  0  0  0  0  0  0  0  0
   98.2150  105.4850  106.5580 C   0  0  0  0  0  0  0  0  0  0  0  0
   98.2240  106.1910  107.9330 C   0  0  0  0  0  0  0  0  0  0  0  0
   99.0060  105.4550  109.0100 C   0  0  0  0  0  0  0  0  0  0  0  0
   98.9080  106.3240  105.4600 C   0  0  0  0  0  0  0  0  0  0  0  0
  100.1230  107.0840  105.9770 C   0  0  0  0  0  0  0  0  0  0  0  0
   96.9510  102.6580  104.3320 C   0  0  2  0  0  0  0  0  0  0  0  0
   97.0520  102.1070  102.8990 C   0  0  0  0  0  0  0  0  0  0  0  0
   96.5270  101.6480  105.3340 N   0  0  0  0  0  0  0  0  0  0  0  0
   97.5820  100.6680  102.8490 C   0  0  1  0  0  0  0  0  0  0  0  0
   95.8250  100.5260  104.7200 C   0  0  0  0  0  0  0  0  0  0  0  0
   99.0770  100.6090  103.1920 C   0  0  0  0  0  0  0  0  0  0  0  0
   96.7330   99.7390  103.7580 C   0  0  2  0  0  0  0  0  0  0  0  0
   99.6510   99.1880  103.1010 C   0  0  2  0  0  0  0  0  0  0  0  0
   97.5950   98.7050  104.5060 C   0  0  0  0  0  0  0  0  0  0  0  0
   98.6570   98.1190  103.5790 C   0  0  0  0  0  0  0  0  0  0  0  0
   97.3450  101.3050  105.8340 H   0  0  0  0  0  0  0  0  0  0  0  0
  100.8080   99.1420  103.9650 O   0  0  0  0  0  0  0  0  0  0  0  0
  101.2710  100.3790  104.3600 C   0  0  0  0  0  0  0  0  0  0  0  0
  100.9840  101.5090  103.5840 C   0  0  0  0  0  0  0  0  0  0  0  0
  101.9560  100.4890  105.5920 C   0  0  0  0  0  0  0  0  0  0  0  0
  101.4210  102.7640  103.9920 C   0  0  0  0  0  0  0  0  0  0  0  0
  102.3860  101.7710  105.9850 C   0  0  0  0  0  0  0  0  0  0  0  0
  102.1250  102.8940  105.1850 C   0  0  0  0  0  0  0  0  0  0  0  0
  103.2070  102.0840  107.4780 Cl  0  0  0  0  0  0  0  0  0  0  0  0
  102.1960   99.2990  106.4160 C   0  0  0  0  0  0  0  0  0  0  0  0
  102.7050   98.1310  106.0670 N   0  0  0  0  0  0  0  0  0  0  0  0
  101.9050   99.2140  107.7520 N   0  0  0  0  0  0  0  0  0  0  0  0
  102.7180   97.3490  107.1980 N   0  0  0  0  0  0  0  0  0  0  0  0
  102.2150   98.0050  108.2320 N   0  0  0  0  0  0  0  0  0  0  0  0
  101.4790   99.9090  108.3520 H   0  0  0  0  0  0  0  0  0  0  0  0
  1  3  1  0  0  0  0
  2  1  2  0  0  0  0
  3  4  1  0  0  0  0
  4  5  1  0  0  0  0
  5  6  1  0  0  0  0
  6  7  1  0  0  0  0
  8  9  1  0  0  0  0
  8  5  1  0  0  0  0
 10  1  1  6  0  0  0
 10 12  1  0  0  0  0
 11 10  1  0  0  0  0
 12 20  1  0  0  0  0
 13 11  1  1  0  0  0
 13 15  1  0  0  0  0
 13 16  1  0  0  0  0
 14 12  1  0  0  0  0
 16 18  1  1  0  0  0
 16 14  1  0  0  0  0
 17 15  1  0  0  0  0
 17 19  1  0  0  0  0
 17 21  1  1  0  0  0
 19 18  1  0  0  0  0
 21 22  1  0  0  0  0
 22 24  1  0  0  0  0
 23 25  1  0  0  0  0
 23 22  2  0  0  0  0
 24 26  2  0  0  0  0
 24 29  1  0  0  0  0
 25 27  2  0  0  0  0
 26 28  1  0  0  0  0
 27 26  1  0  0  0  0
 29 31  1  0  0  0  0
 30 29  2  0  0  0  0
 30 32  1  0  0  0  0
 31 33  1  0  0  0  0
 31 34  1  0  0  0  0
 32 33  2  0  0  0  0
M  END
>  <minimizedAffinity>
-9.36144066

>  <CNNscore>
0.699953794

>  <CNNaffinity>
7.49159622

$$$$
