
 OpenBabel07312602503D

 35 39  0  0  1  0  0  0  0  0999 V2000
  101.2900   99.1960  105.4880 C   0  0  0  0  0  0  0  0  0  0  0  0
  101.6660   98.4310  104.5890 O   0  0  0  0  0  0  0  0  0  0  0  0
  100.1610  100.2220  105.2590 C   0  0  1  0  0  0  0  0  0  0  0  0
  100.0510  101.6890  107.0320 C   0  0  0  0  0  0  0  0  0  0  0  0
  100.5200  102.4780  105.9310 O   0  0  0  0  0  0  0  0  0  0  0  0
   99.5050  100.4740  106.5150 O   0  0  0  0  0  0  0  0  0  0  0  0
  100.5650  101.6260  104.7840 C   0  0  2  0  0  0  0  0  0  0  0  0
   99.5120  102.0720  103.7430 C   0  0  0  0  0  0  0  0  0  0  0  0
   99.1380   99.7290  104.1840 C   0  0  2  0  0  0  0  0  0  0  0  0
   98.3890  101.0470  103.8900 C   0  0  2  0  0  0  0  0  0  0  0  0
   98.0910   98.7120  104.6830 C   0  0  0  0  0  0  0  0  0  0  0  0
   97.3320  100.9160  102.7850 C   0  0  2  0  0  0  0  0  0  0  0  0
   96.9110   98.5190  103.7010 C   0  0  1  0  0  0  0  0  0  0  0  0
   96.6780  102.2800  102.4990 C   0  0  0  0  0  0  0  0  0  0  0  0
   96.2600   99.8640  103.2390 C   0  0  2  0  0  0  0  0  0  0  0  0
   95.5450  102.1750  101.4830 C   0  0  0  0  0  0  0  0  0  0  0  0
   95.0840   99.7310  102.1870 C   0  0  2  0  0  0  0  0  0  0  0  0
   94.5340  101.1460  101.9210 C   0  0  0  0  0  0  0  0  0  0  0  0
   93.9820   98.8130  102.7150 C   0  0  0  0  0  0  0  0  0  0  0  0
   93.2480  101.4950  102.1040 C   0  0  0  0  0  0  0  0  0  0  0  0
   92.7020   99.1660  102.8980 C   0  0  0  0  0  0  0  0  0  0  0  0
   92.2390  100.5310  102.5900 C   0  0  0  0  0  0  0  0  0  0  0  0
   91.0650  100.8530  102.7290 O   0  0  0  0  0  0  0  0  0  0  0  0
   99.8890   99.1790  102.9420 C   0  0  0  0  0  0  0  0  0  0  0  0
   95.6910  100.3880  104.3910 F   0  0  0  0  0  0  0  0  0  0  0  0
   95.5200   99.1340  100.8290 C   0  0  0  0  0  0  0  0  0  0  0  0
  101.2690  101.3990  107.9410 C   0  0  0  0  0  0  0  0  0  0  0  0
  102.5430  102.1390  107.5580 C   0  0  0  0  0  0  0  0  0  0  0  0
   98.9910  102.4740  107.8270 C   0  0  0  0  0  0  0  0  0  0  0  0
   99.3170  103.9400  108.0670 C   0  0  0  0  0  0  0  0  0  0  0  0
   97.3390   97.7140  102.6070 O   0  0  0  0  0  0  0  0  0  0  0  0
   97.6500   96.8650  102.9710 H   0  0  0  0  0  0  0  0  0  0  0  0
  101.9710   99.1240  106.8510 C   0  0  0  0  0  0  0  0  0  0  0  0
  102.0370   97.7870  107.3280 O   0  0  0  0  0  0  0  0  0  0  0  0
  101.3310   97.2930  106.8610 H   0  0  0  0  0  0  0  0  0  0  0  0
  1 33  1  0  0  0  0
  2  1  2  0  0  0  0
  3  1  1  1  0  0  0
  3  6  1  0  0  0  0
  4 29  1  0  0  0  0
  4 27  1  0  0  0  0
  5  4  1  0  0  0  0
  6  4  1  0  0  0  0
  7  8  1  6  0  0  0
  7  3  1  0  0  0  0
  7  5  1  0  0  0  0
  9 24  1  6  0  0  0
  9 11  1  0  0  0  0
  9  3  1  0  0  0  0
 10  8  1  6  0  0  0
 10  9  1  0  0  0  0
 12 14  1  1  0  0  0
 12 15  1  0  0  0  0
 12 10  1  0  0  0  0
 13 31  1  6  0  0  0
 13 11  1  0  0  0  0
 15 13  1  0  0  0  0
 15 25  1  1  0  0  0
 16 18  1  0  0  0  0
 16 14  1  0  0  0  0
 17 26  1  6  0  0  0
 17 19  1  0  0  0  0
 17 15  1  0  0  0  0
 18 20  2  0  0  0  0
 18 17  1  0  0  0  0
 19 21  2  0  0  0  0
 20 22  1  0  0  0  0
 22 23  2  0  0  0  0
 22 21  1  0  0  0  0
 28 27  1  0  0  0  0
 29 30  1  0  0  0  0
 31 32  1  0  0  0  0
 33 34  1  0  0  0  0
 35 34  1  0  0  0  0
M  END
>  <minimizedAffinity>
-8.17542362

>  <CNNscore>
0.863049746

>  <CNNaffinity>
7.13231516

$$$$
