
 OpenBabel08012602533D

 25 28  0  0  0  0  0  0  0  0999 V2000
  102.9110   98.9570  108.9060 C   0  0  0  0  0  2  0  0  0  0  0  0
  104.2440   98.2540  108.8150 C   0  0  0  0  0  0  0  0  0  0  0  0
  105.1930   98.6480  108.1490 O   0  0  0  0  0  0  0  0  0  0  0  0
  104.3410   97.0700  109.4520 O   0  0  0  0  0  0  0  0  0  0  0  0
  105.2610   96.7870  109.2620 H   0  0  0  0  0  0  0  0  0  0  0  0
  102.7830  100.4720  107.9140 S   0  0  0  0  0  0  0  0  0  0  0  0
  101.9570   99.8730  106.5120 C   0  0  0  0  0  0  0  0  0  0  0  0
  102.2040   98.7230  105.9280 N   0  0  0  0  0  0  0  0  0  0  0  0
  100.8840  100.4970  105.9110 N   0  0  0  0  0  0  0  0  0  0  0  0
  101.3140   98.5820  104.8930 N   0  0  0  0  0  0  0  0  0  0  0  0
  100.5440   99.6500  104.8730 C   0  0  0  0  0  0  0  0  0  0  0  0
   99.2760   99.9600  103.4750 Br  0  0  0  0  0  0  0  0  0  0  0  0
  100.3320  101.7700  106.1860 C   0  0  0  0  0  0  0  0  0  0  0  0
   99.3490  101.8360  107.1770 C   0  0  0  0  0  3  0  0  0  0  0  0
  100.7950  102.9360  105.5220 C   0  0  0  0  0  0  0  0  0  0  0  0
   98.8320  103.0700  107.5470 C   0  0  0  0  0  3  0  0  0  0  0  0
  101.7260  102.9190  104.4490 C   0  0  0  0  0  3  0  0  0  0  0  0
  100.2630  104.1940  105.9280 C   0  0  0  0  0  0  0  0  0  0  0  0
   99.2600  104.2670  106.9420 C   0  0  0  0  0  0  0  0  0  0  0  0
  102.1750  104.0880  103.8380 C   0  0  0  0  0  3  0  0  0  0  0  0
  100.7540  105.3600  105.2970 C   0  0  0  0  0  3  0  0  0  0  0  0
  101.6980  105.3120  104.2720 C   0  0  0  0  0  3  0  0  0  0  0  0
   98.6560  105.5850  107.4090 C   0  0  0  0  0  3  0  0  0  0  0  0
   99.0190  106.1380  108.7700 C   0  0  0  0  0  2  0  0  0  0  0  0
   99.5080  106.8290  107.5370 C   0  0  0  0  0  2  0  0  0  0  0  0
  2  1  1  0  0  0  0
  2  4  1  0  0  0  0
  3  2  2  0  0  0  0
  5  4  1  0  0  0  0
  6  1  1  0  0  0  0
  7  6  1  0  0  0  0
  8  7  2  0  0  0  0
  9 13  1  0  0  0  0
  9  7  1  0  0  0  0
 10  8  1  0  0  0  0
 11 10  2  0  0  0  0
 11  9  1  0  0  0  0
 12 11  1  0  0  0  0
 13 14  1  0  0  0  0
 14 16  2  0  0  0  0
 15 18  1  0  0  0  0
 15 13  2  0  0  0  0
 17 15  1  0  0  0  0
 18 19  2  0  0  0  0
 19 23  1  0  0  0  0
 19 16  1  0  0  0  0
 20 22  1  0  0  0  0
 20 17  2  0  0  0  0
 21 18  1  0  0  0  0
 22 21  2  0  0  0  0
 23 25  1  0  0  0  0
 23 24  1  0  0  0  0
 25 24  1  0  0  0  0
M  END
>  <minimizedAffinity>
-8.97992706

>  <CNNscore>
0.913790524

>  <CNNaffinity>
7.27122736

$$$$
