
 OpenBabel08012602033D

 35 39  0  0  1  0  0  0  0  0999 V2000
   96.0800  103.3040  105.0050 C   0  0  0  0  0  0  0  0  0  0  0  0
   95.0820  103.5660  104.1390 N   0  0  0  0  0  0  0  0  0  0  0  0
   95.2050  103.0720  102.9060 C   0  0  0  0  0  3  0  0  0  0  0  0
   96.2210  102.3320  102.4480 N   0  0  0  0  0  0  0  0  0  0  0  0
   97.2030  102.0630  103.3130 C   0  0  0  0  0  0  0  0  0  0  0  0
   98.2660  101.2810  102.8710 C   0  0  0  0  0  3  0  0  0  0  0  0
   99.3340  100.9500  103.7060 C   0  0  0  0  0  0  0  0  0  0  0  0
   99.3450  101.4210  105.0270 C   0  0  0  0  0  0  0  0  0  0  0  0
   98.2760  102.1880  105.4880 C   0  0  0  0  0  3  0  0  0  0  0  0
   97.1970  102.5260  104.6340 C   0  0  0  0  0  0  0  0  0  0  0  0
   96.0090  103.8160  106.3290 N   0  0  0  0  0  0  0  0  0  0  0  0
   95.3980  103.2230  106.8860 H   0  0  0  0  0  0  0  0  0  0  0  0
   97.0270  104.4030  107.1130 C   0  0  0  0  0  0  0  0  0  0  0  0
   99.4270  107.2670  106.8160 C   0  0  0  0  0  0  0  0  0  0  0  0
   98.7640  106.1070  107.3330 C   0  0  0  0  0  0  0  0  0  0  0  0
   99.1660  105.5590  108.5500 C   0  0  0  0  0  3  0  0  0  0  0  0
   97.7110  105.5260  106.6130 C   0  0  0  0  0  3  0  0  0  0  0  0
   98.5220  104.4240  109.0390 C   0  0  0  0  0  3  0  0  0  0  0  0
   97.4690  103.8470  108.3190 C   0  0  0  0  0  3  0  0  0  0  0  0
   99.9960  108.2380  106.3900 C   0  0  0  0  0  3  0  0  0  0  0  0
  100.4370  101.0570  105.8390 N   0  0  0  0  0  0  0  0  0  0  0  0
  100.8330   99.7840  106.1780 C   0  0  0  0  0  0  0  0  0  0  0  0
  100.2070   98.7640  105.8990 O   0  0  0  0  0  0  0  0  0  0  0  0
  100.7740  101.8110  106.4250 H   0  0  0  0  0  0  0  0  0  0  0  0
  102.0220   99.7290  106.8770 N   0  0  0  0  0  0  0  0  0  0  0  0
  102.2030  100.4980  108.0970 C   0  0  0  0  0  2  0  0  0  0  0  0
  103.1510   98.8310  106.6470 C   0  0  0  0  0  2  0  0  0  0  0  0
  103.3280   99.8020  108.8470 C   0  0  2  0  0  3  0  0  0  0  0  0
  104.1780   99.1700  107.7470 C   0  0  1  0  0  3  0  0  0  0  0  0
  102.8920   98.6150  109.7090 C   0  0  0  0  0  2  0  0  0  0  0  0
  104.8410   98.0780  108.4590 N   0  0  0  0  0  0  0  0  0  0  0  0
  103.8370   97.4680  109.3330 C   0  0  0  0  0  2  0  0  0  0  0  0
  105.5140   97.1140  107.6070 C   0  0  0  0  0  1  0  0  0  0  0  0
  100.4190  100.1900  103.3370 O   0  0  0  0  0  0  0  0  0  0  0  0
  101.0160  100.4840  102.0790 C   0  0  0  0  0  1  0  0  0  0  0  0
  1 11  1  0  0  0  0
  2  1  2  0  0  0  0
  3  2  1  0  0  0  0
  4  3  2  0  0  0  0
  4  5  1  0  0  0  0
  5 10  1  0  0  0  0
  6  5  2  0  0  0  0
  6  7  1  0  0  0  0
  7  8  2  0  0  0  0
  8  9  1  0  0  0  0
  8 21  1  0  0  0  0
 10  1  1  0  0  0  0
 10  9  2  0  0  0  0
 11 12  1  0  0  0  0
 11 13  1  0  0  0  0
 13 19  1  0  0  0  0
 14 15  1  0  0  0  0
 15 16  2  0  0  0  0
 16 18  1  0  0  0  0
 17 13  2  0  0  0  0
 17 15  1  0  0  0  0
 19 18  2  0  0  0  0
 20 14  3  0  0  0  0
 21 22  1  0  0  0  0
 21 24  1  0  0  0  0
 22 25  1  0  0  0  0
 23 22  2  0  0  0  0
 25 26  1  0  0  0  0
 27 25  1  0  0  0  0
 28 26  1  6  0  0  0
 28 30  1  0  0  0  0
 29 27  1  6  0  0  0
 29 31  1  0  0  0  0
 29 28  1  0  0  0  0
 31 32  1  0  0  0  0
 32 30  1  0  0  0  0
 33 31  1  0  0  0  0
 34  7  1  0  0  0  0
 35 34  1  0  0  0  0
M  END
>  <minimizedAffinity>
-10.2342167

>  <CNNscore>
0.418314487

>  <CNNaffinity>
7.47016144

$$$$
