
 OpenBabel07302621353D

 48 51  0  0  1  0  0  0  0  0999 V2000
   97.5780  102.6590  104.2430 C   0  0  0  0  0  0  0  0  0  0  0  0
   97.7910  103.9080  104.6460 N   0  0  0  0  0  0  0  0  0  0  0  0
   98.8460  104.0990  105.4340 C   0  0  0  0  0  0  0  0  0  0  0  0
   99.7020  103.1380  105.8030 N   0  0  0  0  0  0  0  0  0  0  0  0
   99.4190  101.9180  105.3310 C   0  0  0  0  0  0  0  0  0  0  0  0
   98.3740  101.6310  104.5550 N   0  0  0  0  0  0  0  0  0  0  0  0
   96.4370  102.3790  103.3430 C   0  0  0  0  0  0  0  0  0  0  0  0
   94.3150  101.7940  101.5230 C   0  0  0  0  0  0  0  0  0  0  0  0
   95.5560  101.1790  101.3880 C   0  0  0  0  0  0  0  0  0  0  0  0
   94.1200  102.6910  102.5700 C   0  0  0  0  0  0  0  0  0  0  0  0
   96.5980  101.4670  102.2780 C   0  0  0  0  0  0  0  0  0  0  0  0
   95.1650  102.9720  103.4670 C   0  0  0  0  0  0  0  0  0  0  0  0
   93.3960  101.4250  100.5820 O   0  0  0  0  0  0  0  0  0  0  0  0
   92.8260  100.1140  100.6350 C   0  0  0  0  0  0  0  0  0  0  0  0
   91.4700  100.1040  101.3760 C   0  0  1  0  0  0  0  0  0  0  0  0
   91.7120   99.9100  102.8960 C   0  0  0  0  0  0  0  0  0  0  0  0
   92.5360   98.6650  103.2430 C   0  0  0  0  0  0  0  0  0  0  0  0
   92.7830   98.5670  104.7510 C   0  0  0  0  0  0  0  0  0  0  0  0
   91.4790   98.6090  105.5310 C   0  0  0  0  0  0  0  0  0  0  0  0
   90.6590  101.3860  101.0870 C   0  0  0  0  0  0  0  0  0  0  0  0
   90.8740  101.9470   99.6870 C   0  0  0  0  0  0  0  0  0  0  0  0
   94.9050  103.8320  104.5040 O   0  0  0  0  0  0  0  0  0  0  0  0
   94.0050  104.1830  104.4260 H   0  0  0  0  0  0  0  0  0  0  0  0
   99.0840  105.4740  105.9270 C   0  0  0  0  0  0  0  0  0  0  0  0
   98.5490  105.9140  107.1520 C   0  0  0  0  0  0  0  0  0  0  0  0
   99.8550  106.4060  105.2050 C   0  0  0  0  0  0  0  0  0  0  0  0
   98.7730  107.2120  107.6280 C   0  0  0  0  0  0  0  0  0  0  0  0
  100.0830  107.7070  105.6820 C   0  0  0  0  0  0  0  0  0  0  0  0
   99.5440  108.1140  106.8990 C   0  0  0  0  0  0  0  0  0  0  0  0
   99.6900  109.3450  107.4750 O   0  0  0  0  0  0  0  0  0  0  0  0
   99.6340  110.4720  106.6080 C   0  0  0  0  0  0  0  0  0  0  0  0
  100.3400  100.8110  105.6800 C   0  0  0  0  0  0  0  0  0  0  0  0
  100.8440  100.6830  106.9900 C   0  0  0  0  0  0  0  0  0  0  0  0
  100.7640   99.8300  104.7600 C   0  0  0  0  0  0  0  0  0  0  0  0
  101.7060   99.6410  107.3540 C   0  0  0  0  0  0  0  0  0  0  0  0
  101.6250   98.7830  105.1200 C   0  0  0  0  0  0  0  0  0  0  0  0
  102.0980   98.6820  106.4230 C   0  0  0  0  0  0  0  0  0  0  0  0
  100.3710   99.8220  103.4440 O   0  0  0  0  0  0  0  0  0  0  0  0
   99.7940  100.6010  103.3150 H   0  0  0  0  0  0  0  0  0  0  0  0
  102.9410   97.7250  106.9120 O   0  0  0  0  0  0  0  0  0  0  0  0
  104.3270   98.0360  107.0680 C   0  0  0  0  0  0  0  0  0  0  0  0
  104.6900   98.4330  108.5160 C   0  0  1  0  0  0  0  0  0  0  0  0
  103.9530   97.5760  109.5710 C   0  0  0  0  0  0  0  0  0  0  0  0
  102.8510   98.3050  110.3300 C   0  0  0  0  0  0  0  0  0  0  0  0
  106.2240   98.3230  108.6850 C   0  0  0  0  0  0  0  0  0  0  0  0
  106.6790   98.2750  110.1490 C   0  0  0  0  0  0  0  0  0  0  0  0
  108.1710   98.5720  110.3250 C   0  0  0  0  0  0  0  0  0  0  0  0
  108.7740   97.9250  111.5640 C   0  0  0  0  0  0  0  0  0  0  0  0
  1  6  2  0  0  0  0
  1  2  1  0  0  0  0
  2  3  2  0  0  0  0
  3  4  1  0  0  0  0
  3 24  1  0  0  0  0
  5 32  1  0  0  0  0
  5  4  2  0  0  0  0
  6  5  1  0  0  0  0
  7 12  1  0  0  0  0
  7  1  1  0  0  0  0
  8 10  1  0  0  0  0
  9  8  2  0  0  0  0
  9 11  1  0  0  0  0
 10 12  2  0  0  0  0
 11  7  2  0  0  0  0
 12 22  1  0  0  0  0
 13 14  1  0  0  0  0
 13  8  1  0  0  0  0
 15 14  1  6  0  0  0
 15 16  1  0  0  0  0
 16 17  1  0  0  0  0
 17 18  1  0  0  0  0
 18 19  1  0  0  0  0
 20 15  1  0  0  0  0
 21 20  1  0  0  0  0
 23 22  1  0  0  0  0
 24 25  1  0  0  0  0
 25 27  2  0  0  0  0
 26 28  1  0  0  0  0
 26 24  2  0  0  0  0
 28 29  2  0  0  0  0
 29 30  1  0  0  0  0
 29 27  1  0  0  0  0
 31 30  1  0  0  0  0
 32 33  1  0  0  0  0
 33 35  2  0  0  0  0
 34 36  1  0  0  0  0
 34 32  2  0  0  0  0
 36 37  2  0  0  0  0
 37 40  1  0  0  0  0
 37 35  1  0  0  0  0
 38 34  1  0  0  0  0
 39 38  1  0  0  0  0
 40 41  1  0  0  0  0
 42 41  1  6  0  0  0
 42 45  1  0  0  0  0
 42 43  1  0  0  0  0
 43 44  1  0  0  0  0
 45 46  1  0  0  0  0
 46 47  1  0  0  0  0
 47 48  1  0  0  0  0
M  END
>  <minimizedAffinity>
-5.90375805

>  <CNNscore>
0.22364451

>  <CNNaffinity>
7.51560831

$$$$
