
 OpenBabel08012602083D

 40 44  0  0  0  0  0  0  0  0999 V2000
   98.7110  100.2080  102.6810 C   0  0  0  0  0  0  0  0  0  0  0  0
   99.2660   98.9750  102.6310 N   0  0  0  0  0  0  0  0  0  0  0  0
  100.1540   98.6330  103.5870 C   0  0  0  0  0  3  0  0  0  0  0  0
  100.4720   99.5060  104.5730 C   0  0  0  0  0  0  0  0  0  0  0  0
  101.3790   99.4310  105.6940 C   0  0  0  0  0  0  0  0  0  0  0  0
  101.9870   98.4250  106.0070 O   0  0  0  0  0  0  0  0  0  0  0  0
  101.3400  100.6670  106.3200 N   0  0  0  0  0  0  0  0  0  0  0  0
  100.3370  101.5230  105.6940 N   0  0  0  0  0  0  0  0  0  0  0  0
   99.8680  100.7350  104.5860 C   0  0  0  0  0  0  0  0  0  0  0  0
   98.9830  101.1120  103.6470 N   0  0  0  0  0  0  0  0  0  0  0  0
   97.7990  100.6390  101.7240 N   0  0  0  0  0  0  0  0  0  0  0  0
   98.2400  100.6120  100.8150 H   0  0  0  0  0  0  0  0  0  0  0  0
   96.4090  100.8040  101.7210 C   0  0  0  0  0  0  0  0  0  0  0  0
   93.5400  100.9920  101.7030 C   0  0  0  0  0  0  0  0  0  0  0  0
   94.2030   99.8070  102.0560 C   0  0  0  0  0  3  0  0  0  0  0  0
   94.3550  102.0750  101.3590 C   0  0  0  0  0  3  0  0  0  0  0  0
   95.6020   99.7110  102.0560 C   0  0  0  0  0  3  0  0  0  0  0  0
   95.7580  101.9790  101.3530 C   0  0  0  0  0  3  0  0  0  0  0  0
   92.1470  101.0500  101.7480 N   0  0  0  0  0  0  0  0  0  0  0  0
   90.2760  100.7220   99.4470 N   0  0  0  0  0  0  0  0  0  0  0  0
   91.0050  101.9850   99.7150 C   0  0  0  0  0  2  0  0  0  0  0  0
   91.0310   99.5950  100.0460 C   0  0  0  0  0  2  0  0  0  0  0  0
   91.4240  102.2120  101.1890 C   0  0  0  0  0  2  0  0  0  0  0  0
   91.4280   99.7730  101.5340 C   0  0  0  0  0  2  0  0  0  0  0  0
   88.9040  100.7750   99.9450 C   0  0  0  0  0  1  0  0  0  0  0  0
  100.7930  102.8560  105.4560 C   0  0  0  0  0  0  0  0  0  0  0  0
  101.8120  103.0950  104.5410 C   0  0  0  0  0  3  0  0  0  0  0  0
  100.1360  103.8880  106.0300 N   0  0  0  0  0  0  0  0  0  0  0  0
  102.0980  104.4090  104.1750 C   0  0  0  0  0  3  0  0  0  0  0  0
  100.2980  105.1450  105.5670 C   0  0  0  0  0  0  0  0  0  0  0  0
  101.3190  105.4490  104.6760 C   0  0  0  0  0  3  0  0  0  0  0  0
   99.2940  106.1650  106.0930 C   0  0  0  0  0  0  0  0  0  0  0  0
   98.6670  105.7860  107.4390 C   0  0  0  0  0  1  0  0  0  0  0  0
   98.2190  106.2230  105.1340 O   0  0  0  0  0  0  0  0  0  0  0  0
   98.6470  106.2380  104.2580 H   0  0  0  0  0  0  0  0  0  0  0  0
   99.8910  107.6040  106.1620 C   0  0  0  0  0  1  0  0  0  0  0  0
  101.7660  100.8110  107.7100 C   0  0  0  0  0  2  0  0  0  0  0  0
  103.1940  100.4430  107.9900 C   0  0  0  0  0  3  0  0  0  0  0  0
  103.6600   99.4250  108.7400 C   0  0  0  0  0  3  0  0  0  0  0  0
  102.8700   98.4040  109.5150 C   0  0  0  0  0  1  0  0  0  0  0  0
  1 10  1  0  0  0  0
  2  1  2  0  0  0  0
  2  3  1  0  0  0  0
  3  4  2  0  0  0  0
  4  9  1  0  0  0  0
  4  5  1  0  0  0  0
  5  6  2  0  0  0  0
  5  7  1  0  0  0  0
  7 37  1  0  0  0  0
  8  7  1  0  0  0  0
  9  8  1  0  0  0  0
 10  9  2  0  0  0  0
 11  1  1  0  0  0  0
 12 11  1  0  0  0  0
 13 11  1  0  0  0  0
 13 17  1  0  0  0  0
 14 19  1  0  0  0  0
 14 15  1  0  0  0  0
 16 14  2  0  0  0  0
 17 15  2  0  0  0  0
 18 16  1  0  0  0  0
 18 13  2  0  0  0  0
 20 21  1  0  0  0  0
 20 25  1  0  0  0  0
 20 22  1  0  0  0  0
 21 23  1  0  0  0  0
 22 24  1  0  0  0  0
 23 19  1  0  0  0  0
 24 19  1  0  0  0  0
 26  8  1  0  0  0  0
 26 28  1  0  0  0  0
 27 26  2  0  0  0  0
 29 27  1  0  0  0  0
 29 31  2  0  0  0  0
 30 28  2  0  0  0  0
 30 32  1  0  0  0  0
 31 30  1  0  0  0  0
 32 36  1  0  0  0  0
 32 33  1  0  0  0  0
 34 32  1  0  0  0  0
 35 34  1  0  0  0  0
 37 38  1  0  0  0  0
 38 39  2  0  0  0  0
 39 40  1  0  0  0  0
M  END
>  <minimizedAffinity>
-10.5946074

>  <CNNscore>
0.638432324

>  <CNNaffinity>
7.70990562

$$$$
