
 OpenBabel07312620353D

 26 29  0  0  1  0  0  0  0  0999 V2000
  100.4030  104.2580  105.1500 C   0  0  0  0  0  0  0  0  0  0  0  0
  101.7080  103.8740  104.8020 C   0  0  0  0  0  3  0  0  0  0  0  0
  101.7580  102.6780  104.2140 N   0  0  0  0  0  0  0  0  0  0  0  0
  100.4510  102.2810  104.1520 N   0  0  0  0  0  0  0  0  0  0  0  0
   99.9640  101.0700  103.6030 C   0  0  0  0  0  0  0  0  0  0  0  0
   98.6390  100.8150  103.6850 C   0  0  0  0  0  0  0  0  0  0  0  0
   97.8830   99.2530  102.9920 Br  0  0  0  0  0  0  0  0  0  0  0  0
   97.7840  101.8790  104.3510 C   0  0  0  0  0  0  0  0  0  0  0  0
   98.2520  103.0040  104.8220 N   0  0  0  0  0  0  0  0  0  0  0  0
   99.5970  103.2150  104.7390 C   0  0  0  0  0  0  0  0  0  0  0  0
  100.0260  105.4990  105.8100 C   0  0  0  0  0  0  0  0  0  0  0  0
   99.7680  107.5920  106.3970 N   0  0  0  0  0  0  0  0  0  0  0  0
  100.3640  106.7890  105.4700 C   0  0  0  0  0  3  0  0  0  0  0  0
   99.0610  106.9140  107.3210 N   0  0  0  0  0  0  0  0  0  0  0  0
   99.2220  105.6360  106.9600 C   0  0  0  0  0  3  0  0  0  0  0  0
   99.8290  109.0310  106.4660 C   0  0  0  0  0  1  0  0  0  0  0  0
   96.2620  101.6680  104.4480 C   0  0  2  0  0  3  0  0  0  0  0  0
   95.9300  100.7730  105.6570 C   0  0  0  0  0  2  0  0  0  0  0  0
   95.6800  101.1080  103.1350 C   0  0  0  0  0  2  0  0  0  0  0  0
   95.3320   99.4370  105.2270 C   0  0  0  0  0  2  0  0  0  0  0  0
   94.2820  100.7260  103.3310 N   0  0  0  0  0  0  0  0  0  0  0  0
   94.1350   99.6290  104.2920 C   0  0  0  0  0  2  0  0  0  0  0  0
   93.8610  100.4590  102.4410 H   0  0  0  0  0  0  0  0  0  0  0  0
  100.9120  100.2210  103.0210 N   0  0  0  0  0  0  0  0  0  0  0  0
  100.6700   99.2350  103.0750 H   0  0  0  0  0  0  0  0  0  0  0  0
  101.8590  100.4350  103.3480 H   0  0  0  0  0  0  0  0  0  0  0  0
  1 11  1  0  0  0  0
  2  1  1  0  0  0  0
  3  2  2  0  0  0  0
  4  3  1  0  0  0  0
  4 10  1  0  0  0  0
  5  6  2  0  0  0  0
  5  4  1  0  0  0  0
  6  8  1  0  0  0  0
  7  6  1  0  0  0  0
  8  9  2  0  0  0  0
 10  9  1  0  0  0  0
 10  1  2  0  0  0  0
 11 15  1  0  0  0  0
 12 16  1  0  0  0  0
 12 14  1  0  0  0  0
 13 11  2  0  0  0  0
 13 12  1  0  0  0  0
 15 14  2  0  0  0  0
 17  8  1  6  0  0  0
 17 18  1  0  0  0  0
 19 21  1  0  0  0  0
 19 17  1  0  0  0  0
 20 18  1  0  0  0  0
 21 22  1  0  0  0  0
 22 20  1  0  0  0  0
 23 21  1  0  0  0  0
 24 25  1  0  0  0  0
 24 26  1  0  0  0  0
 24  5  1  0  0  0  0
M  END
>  <minimizedAffinity>
-6.97597551

>  <CNNscore>
0.403550267

>  <CNNaffinity>
6.21209335

$$$$
