
 OpenBabel07312604183D

 29 31  0  0  1  0  0  0  0  0999 V2000
  101.1780   99.3600  101.5550 C   0  0  0  0  0  0  0  0  0  0  0  0
  100.0150  100.0680  102.2030 C   0  0  0  0  0  0  0  0  0  0  0  0
   98.7970  100.1040  101.5070 C   0  0  0  0  0  0  0  0  0  0  0  0
   97.6880  100.7580  102.0350 C   0  0  0  0  0  0  0  0  0  0  0  0
   97.7780  101.3780  103.2800 C   0  0  0  0  0  0  0  0  0  0  0  0
   98.9910  101.3590  104.0020 C   0  0  0  0  0  0  0  0  0  0  0  0
  100.1300  100.7200  103.4570 C   0  0  0  0  0  0  0  0  0  0  0  0
   98.9870  102.1050  105.3200 C   0  0  0  0  0  0  0  0  0  0  0  0
   97.7400  101.7790  106.1460 C   0  0  0  0  0  0  0  0  0  0  0  0
   96.4250  101.8030  105.3480 C   0  0  2  0  0  0  0  0  0  0  0  0
   96.6060  102.1270  103.8590 C   0  0  0  0  0  0  0  0  0  0  0  0
  101.4510  100.7060  104.2060 C   0  0  0  0  0  0  0  0  0  0  0  0
  101.2760  100.2520  105.6550 C   0  0  0  0  0  0  0  0  0  0  0  0
  102.1550   99.0730  105.9570 C   0  0  0  0  0  0  0  0  0  0  0  0
  102.9280   98.9430  106.8920 O   0  0  0  0  0  0  0  0  0  0  0  0
  102.0120   98.0910  105.0460 O   0  0  0  0  0  0  0  0  0  0  0  0
  102.6240   97.3880  105.3500 H   0  0  0  0  0  0  0  0  0  0  0  0
   95.5010  102.7910  105.9330 N   0  0  0  0  0  0  0  0  0  0  0  0
   94.4990  102.6010  105.9360 H   0  0  0  0  0  0  0  0  0  0  0  0
   95.8890  104.4190  105.9130 S   0  0  0  0  0  0  0  0  0  0  0  0
   96.4650  104.7370  104.6260 O   0  0  0  0  0  0  0  0  0  0  0  0
   94.7330  105.1180  106.4270 O   0  0  0  0  0  0  0  0  0  0  0  0
   97.1610  104.5030  107.1500 C   0  0  0  0  0  0  0  0  0  0  0  0
   97.0430  103.7230  108.3050 C   0  0  0  0  0  0  0  0  0  0  0  0
   98.2500  105.3640  106.9750 C   0  0  0  0  0  0  0  0  0  0  0  0
   98.0350  103.7920  109.2850 C   0  0  0  0  0  0  0  0  0  0  0  0
   99.2380  105.4280  107.9590 C   0  0  0  0  0  0  0  0  0  0  0  0
   99.1290  104.6420  109.1070 C   0  0  0  0  0  0  0  0  0  0  0  0
  100.3510  104.7220  110.3150 Cl  0  0  0  0  0  0  0  0  0  0  0  0
  1  2  1  0  0  0  0
  2  7  1  0  0  0  0
  3  4  1  0  0  0  0
  3  2  2  0  0  0  0
  4  5  2  0  0  0  0
  5 11  1  0  0  0  0
  5  6  1  0  0  0  0
  6  8  1  0  0  0  0
  7  6  2  0  0  0  0
  7 12  1  0  0  0  0
  8  9  1  0  0  0  0
 10 18  1  1  0  0  0
 10  9  1  0  0  0  0
 11 10  1  0  0  0  0
 12 13  1  0  0  0  0
 13 14  1  0  0  0  0
 14 15  2  0  0  0  0
 16 17  1  0  0  0  0
 16 14  1  0  0  0  0
 18 19  1  0  0  0  0
 20 18  1  0  0  0  0
 20 22  2  0  0  0  0
 20 23  1  0  0  0  0
 21 20  2  0  0  0  0
 23 24  1  0  0  0  0
 24 26  2  0  0  0  0
 25 23  2  0  0  0  0
 25 27  1  0  0  0  0
 27 28  2  0  0  0  0
 28 26  1  0  0  0  0
 28 29  1  0  0  0  0
M  END
>  <minimizedAffinity>
-7.72175169

>  <CNNscore>
0.72129786

>  <CNNaffinity>
6.52255297

$$$$
