
 OpenBabel07312618513D

 37 40  0  0  0  0  0  0  0  0999 V2000
   95.8190  100.3760  102.7510 C   0  0  0  0  0  0  0  0  0  0  0  0
   95.1210   99.2530  102.2790 C   0  0  0  0  0  3  0  0  0  0  0  0
   94.1310   99.4110  101.3110 C   0  0  0  0  0  0  0  0  0  0  0  0
   93.2700   98.0330  100.7460 Cl  0  0  0  0  0  0  0  0  0  0  0  0
   93.8260  100.6730  100.8090 C   0  0  0  0  0  3  0  0  0  0  0  0
   94.5360  101.7910  101.2570 C   0  0  0  0  0  3  0  0  0  0  0  0
   95.5590  101.6500  102.2020 C   0  0  0  0  0  0  0  0  0  0  0  0
   96.8530  100.2110  103.8120 C   0  0  0  0  0  0  0  0  0  0  0  0
   96.6500   99.3710  104.6860 O   0  0  0  0  0  0  0  0  0  0  0  0
   97.9940  100.9790  103.6600 N   0  0  0  0  0  0  0  0  0  0  0  0
   98.1140  101.4670  102.7790 H   0  0  0  0  0  0  0  0  0  0  0  0
   99.0840  101.0660  104.5520 C   0  0  0  0  0  0  0  0  0  0  0  0
   98.8020  101.4540  105.8700 C   0  0  0  0  0  3  0  0  0  0  0  0
  100.4030  100.7630  104.2000 C   0  0  0  0  0  3  0  0  0  0  0  0
   99.8240  101.5520  106.8190 C   0  0  0  0  0  3  0  0  0  0  0  0
  101.4320  100.8530  105.1460 C   0  0  0  0  0  3  0  0  0  0  0  0
  101.1360  101.2580  106.4480 C   0  0  0  0  0  0  0  0  0  0  0  0
  102.4170  101.3560  107.6760 S   0  0  0  0  0  0  0  0  0  0  0  0
  102.0230  102.3320  108.6690 O   0  0  0  0  0  0  0  0  0  0  0  0
  103.6730  101.4750  106.9670 O   0  0  0  0  0  0  0  0  0  0  0  0
  102.3510   99.8120  108.3900 N   0  0  0  0  0  0  0  0  0  0  0  0
  103.5430   99.3880  109.1930 C   0  0  0  0  0  2  0  0  0  0  0  0
  101.9220   98.7030  107.4790 C   0  0  0  0  0  2  0  0  0  0  0  0
  104.6510   98.7940  108.3100 C   0  0  0  0  0  2  0  0  0  0  0  0
  103.0950   98.1900  106.6420 C   0  0  0  0  0  2  0  0  0  0  0  0
  104.1570   97.7250  107.4900 O   0  0  0  0  0  0  0  0  0  0  0  0
   96.2930  102.8120  102.6300 N   0  0  0  0  0  0  0  0  0  0  0  0
   96.7930  103.2830  101.8610 H   0  0  0  0  0  0  0  0  0  0  0  0
   95.4250  104.0330  103.4410 S   0  0  0  0  0  0  0  0  0  0  0  0
   95.7590  105.3250  102.8790 O   0  0  0  0  0  0  0  0  0  0  0  0
   94.0530  103.5760  103.5130 O   0  0  0  0  0  0  0  0  0  0  0  0
   95.9720  104.0280  105.1400 C   0  0  0  0  0  0  0  0  0  0  0  0
   95.5670  103.2780  106.2320 C   0  0  0  0  0  3  0  0  0  0  0  0
   97.2550  105.0950  105.5580 S   0  0  0  0  0  0  0  0  0  0  0  0
   96.3050  103.5880  107.4120 C   0  0  0  0  0  3  0  0  0  0  0  0
   97.2440  104.5610  107.1620 C   0  0  0  0  0  0  0  0  0  0  0  0
   98.3490  105.2360  108.2900 Cl  0  0  0  0  0  0  0  0  0  0  0  0
  1  8  1  0  0  0  0
  2  1  1  0  0  0  0
  3  2  2  0  0  0  0
  4  3  1  0  0  0  0
  5  6  2  0  0  0  0
  5  3  1  0  0  0  0
  6  7  1  0  0  0  0
  7 27  1  0  0  0  0
  7  1  2  0  0  0  0
  8  9  2  0  0  0  0
 10  8  1  0  0  0  0
 10 12  1  0  0  0  0
 11 10  1  0  0  0  0
 12 13  1  0  0  0  0
 13 15  2  0  0  0  0
 14 12  2  0  0  0  0
 14 16  1  0  0  0  0
 16 17  2  0  0  0  0
 17 15  1  0  0  0  0
 17 18  1  0  0  0  0
 18 21  1  0  0  0  0
 18 19  2  0  0  0  0
 20 18  2  0  0  0  0
 21 22  1  0  0  0  0
 23 21  1  0  0  0  0
 24 22  1  0  0  0  0
 25 23  1  0  0  0  0
 25 26  1  0  0  0  0
 26 24  1  0  0  0  0
 27 29  1  0  0  0  0
 28 27  1  0  0  0  0
 29 31  2  0  0  0  0
 29 32  1  0  0  0  0
 30 29  2  0  0  0  0
 32 34  1  0  0  0  0
 32 33  2  0  0  0  0
 33 35  1  0  0  0  0
 34 36  1  0  0  0  0
 36 35  2  0  0  0  0
 36 37  1  0  0  0  0
M  END
>  <minimizedAffinity>
-8.32167053

>  <CNNscore>
0.657537222

>  <CNNaffinity>
7.82656479

$$$$
