
 OpenBabel08012600213D

 34 36  0  0  1  0  0  0  0  0999 V2000
  100.0610  101.9000  104.4180 C   0  0  0  0  0  0  0  0  0  0  0  0
  101.0260  102.3530  103.8320 O   0  0  0  0  0  0  0  0  0  0  0  0
   98.8640  102.6860  104.7910 C   0  0  0  0  0  0  0  0  0  0  0  0
   97.7080  104.1200  106.5380 C   0  0  0  0  0  0  0  0  0  0  0  0
   96.5460  103.9000  105.8820 C   0  0  1  0  0  3  0  0  0  0  0  0
   99.0400  103.6350  105.9690 C   0  0  0  0  0  0  0  0  0  0  0  0
   96.5570  103.1940  104.6840 N   0  0  0  0  0  0  0  0  0  0  0  0
   97.6650  102.5240  104.1880 C   0  0  0  0  0  0  0  0  0  0  0  0
   95.1930  104.3440  106.3780 C   0  0  0  0  0  1  0  0  0  0  0  0
   95.6570  102.9770  104.2640 H   0  0  0  0  0  0  0  0  0  0  0  0
   97.4220  101.6510  102.9840 C   0  0  0  0  0  1  0  0  0  0  0  0
   97.7450  104.8830  107.8100 C   0  0  0  0  0  0  0  0  0  0  0  0
   97.3090  106.0140  107.9570 O   0  0  0  0  0  0  0  0  0  0  0  0
   98.3270  104.1290  108.7770 O   0  0  0  0  0  0  0  0  0  0  0  0
   99.3800  104.7940  109.4780 C   0  0  0  0  0  1  0  0  0  0  0  0
   99.9370  104.8270  105.6160 C   0  0  0  0  0  0  0  0  0  0  0  0
   99.7580  106.0830  106.2240 C   0  0  0  0  0  3  0  0  0  0  0  0
  100.9720  104.6720  104.6790 C   0  0  0  0  0  3  0  0  0  0  0  0
  100.5860  107.1630  105.9030 C   0  0  0  0  0  3  0  0  0  0  0  0
  101.8010  105.7590  104.3620 C   0  0  0  0  0  0  0  0  0  0  0  0
  101.6110  107.0060  104.9710 C   0  0  0  0  0  3  0  0  0  0  0  0
  102.8800  105.5850  103.3850 N   0  0  0  0  0  0  0  0  0  0  0  0
  103.0130  104.4690  102.8670 O   0  0  0  0  0  0  0  0  0  0  0  0
  103.5930  106.5660  103.1280 O   0  0  0  0  0  0  0  0  0  0  0  0
   99.9360  100.6420  104.9090 O   0  0  0  0  0  0  0  0  0  0  0  0
  100.8160   99.6640  104.3480 C   0  0  0  0  0  2  0  0  0  0  0  0
  101.5910   99.0720  105.4870 C   0  0  0  0  0  3  0  0  0  0  0  0
  102.0990   99.7800  106.5090 C   0  0  0  0  0  3  0  0  0  0  0  0
  102.8610   99.1760  107.6100 C   0  0  0  0  0  0  0  0  0  0  0  0
  102.4960   99.3520  108.9520 C   0  0  0  0  0  3  0  0  0  0  0  0
  104.0160   98.4400  107.3130 C   0  0  0  0  0  3  0  0  0  0  0  0
  103.2580   98.7820  109.9750 C   0  0  0  0  0  3  0  0  0  0  0  0
  104.7770   97.8690  108.3370 C   0  0  0  0  0  3  0  0  0  0  0  0
  104.3950   98.0350  109.6670 C   0  0  0  0  0  3  0  0  0  0  0  0
  1  3  1  0  0  0  0
  1 25  1  0  0  0  0
  2  1  2  0  0  0  0
  3  6  1  0  0  0  0
  4 12  1  0  0  0  0
  5  9  1  1  0  0  0
  5  4  1  0  0  0  0
  6  4  2  0  0  0  0
  7  5  1  0  0  0  0
  8  7  1  0  0  0  0
  8  3  2  0  0  0  0
 10  7  1  0  0  0  0
 11  8  1  0  0  0  0
 12 13  2  0  0  0  0
 12 14  1  0  0  0  0
 14 15  1  0  0  0  0
 16  6  1  0  0  0  0
 16 17  1  0  0  0  0
 18 16  2  0  0  0  0
 19 17  2  0  0  0  0
 20 18  1  0  0  0  0
 20 21  2  0  0  0  0
 21 19  1  0  0  0  0
 22 20  1  0  0  0  0
 23 22  2  0  0  0  0
 24 22  2  0  0  0  0
 26 25  1  0  0  0  0
 26 27  1  0  0  0  0
 27 28  2  0  0  0  0
 28 29  1  0  0  0  0
 29 30  1  0  0  0  0
 30 32  2  0  0  0  0
 31 29  2  0  0  0  0
 31 33  1  0  0  0  0
 33 34  2  0  0  0  0
 34 32  1  0  0  0  0
M  END
>  <minimizedAffinity>
-9.40109921

>  <CNNscore>
0.68612045

>  <CNNaffinity>
7.13265848

$$$$
