
 OpenBabel07312615153D

 47 52  0  0  1  0  0  0  0  0999 V2000
   99.1700  100.0330  102.4040 C   0  0  0  0  0  0  0  0  0  0  0  0
   97.9000  100.3920  101.9410 C   0  0  0  0  0  3  0  0  0  0  0  0
   96.7790   99.6640  102.3550 C   0  0  0  0  0  0  0  0  0  0  0  0
   96.9320   98.5700  103.2080 C   0  0  0  0  0  3  0  0  0  0  0  0
   98.2020   98.2190  103.6710 C   0  0  0  0  0  3  0  0  0  0  0  0
   99.3340   98.9410  103.2930 C   0  0  0  0  0  0  0  0  0  0  0  0
  100.3350  100.6900  102.0720 O   0  0  0  0  0  0  0  0  0  0  0  0
  101.1470  100.1020  101.0650 C   0  0  0  0  0  1  0  0  0  0  0  0
  100.6270   98.6080  103.7150 N   0  0  0  0  0  0  0  0  0  0  0  0
  101.1720   98.1140  103.0190 H   0  0  0  0  0  0  0  0  0  0  0  0
  101.4060   98.8820  104.8280 C   0  0  0  0  0  0  0  0  0  0  0  0
  102.1250   97.8480  105.2510 N   0  0  0  0  0  0  0  0  0  0  0  0
  101.4120  100.0660  105.4540 N   0  0  0  0  0  0  0  0  0  0  0  0
  102.8950   98.0530  106.3350 C   0  0  0  0  0  3  0  0  0  0  0  0
  102.1630  100.2480  106.5770 C   0  0  0  0  0  0  0  0  0  0  0  0
  102.9900   99.2260  107.0820 C   0  0  0  0  0  0  0  0  0  0  0  0
  102.0380  101.4840  107.1940 N   0  0  0  0  0  0  0  0  0  0  0  0
  100.8500  101.9200  107.9330 C   0  0  0  0  0  3  0  0  0  0  0  0
  100.8970  103.3460  108.4780 C   0  0  0  0  0  2  0  0  0  0  0  0
   99.5140  101.7950  107.2060 C   0  0  0  0  0  2  0  0  0  0  0  0
   99.4400  103.8160  108.5040 C   0  0  0  0  0  2  0  0  0  0  0  0
   98.5920  102.6170  108.0950 C   0  0  0  0  0  2  0  0  0  0  0  0
  102.8560  102.5290  106.6150 C   0  0  0  0  0  2  0  0  0  0  0  0
  102.4070  102.7030  105.2040 C   0  0  0  0  0  3  0  0  0  0  0  0
  101.2910  103.7290  104.9690 C   0  0  0  0  0  2  0  0  0  0  0  0
  102.6760  104.0340  104.4940 C   0  0  0  0  0  2  0  0  0  0  0  0
  103.8790   99.2460  108.2390 N   0  0  0  0  0  0  0  0  0  0  0  0
  103.2860   99.5950  109.5350 C   0  0  0  0  0  1  0  0  0  0  0  0
  105.2370   98.8940  108.3190 C   0  0  0  0  0  3  0  0  0  0  0  0
  105.6330   97.7880  107.9460 O   0  0  0  0  0  0  0  0  0  0  0  0
   95.4110  100.0070  101.8840 C   0  0  0  0  0  0  0  0  0  0  0  0
   94.9980   99.5640  100.8220 O   0  0  0  0  0  0  0  0  0  0  0  0
   94.6700  100.8120  102.7260 N   0  0  0  0  0  0  0  0  0  0  0  0
   95.0400  101.0480  103.6360 H   0  0  0  0  0  0  0  0  0  0  0  0
   93.3330  101.2800  102.3710 C   0  0  1  0  0  3  0  0  0  0  0  0
   93.2620  101.6230  100.8780 C   0  0  0  0  0  2  0  0  0  0  0  0
   92.2700  100.2440  102.7580 C   0  0  0  0  0  2  0  0  0  0  0  0
   93.2450  100.3760   99.9860 C   0  0  0  0  0  2  0  0  0  0  0  0
   92.2950   99.0190  101.8390 C   0  0  0  0  0  2  0  0  0  0  0  0
   92.1050   99.3910  100.3480 C   0  0  1  0  0  3  0  0  0  0  0  0
   90.7490   99.9200  100.0840 N   0  0  0  0  0  0  0  0  0  0  0  0
   89.9700  100.2260  101.3040 C   0  0  0  0  0  2  0  0  0  0  0  0
   90.7380  101.0840   99.1620 C   0  0  0  0  0  2  0  0  0  0  0  0
   88.7180  101.0910  101.0270 C   0  0  0  0  0  2  0  0  0  0  0  0
   90.3460  102.4320   99.8150 C   0  0  0  0  0  2  0  0  0  0  0  0
   89.0090  102.4090  100.4340 N   0  0  0  0  0  0  0  0  0  0  0  0
   88.8640  103.4920  101.4010 C   0  0  0  0  0  1  0  0  0  0  0  0
  1  6  1  0  0  0  0
  2  3  1  0  0  0  0
  2  1  2  0  0  0  0
  3  4  2  0  0  0  0
  4  5  1  0  0  0  0
  6  5  2  0  0  0  0
  6  9  1  0  0  0  0
  7  1  1  0  0  0  0
  8  7  1  0  0  0  0
  9 11  1  0  0  0  0
 10  9  1  0  0  0  0
 11 12  2  0  0  0  0
 11 13  1  0  0  0  0
 12 14  1  0  0  0  0
 13 15  2  0  0  0  0
 14 16  2  0  0  0  0
 15 16  1  0  0  0  0
 15 17  1  0  0  0  0
 16 27  1  0  0  0  0
 17 18  1  0  0  0  0
 18 19  1  0  0  0  0
 19 21  1  0  0  0  0
 20 18  1  0  0  0  0
 20 22  1  0  0  0  0
 22 21  1  0  0  0  0
 23 17  1  0  0  0  0
 24 23  1  0  0  0  0
 25 24  1  0  0  0  0
 26 25  1  0  0  0  0
 26 24  1  0  0  0  0
 27 29  1  0  0  0  0
 27 28  1  0  0  0  0
 30 29  2  0  0  0  0
 31  3  1  0  0  0  0
 31 33  1  0  0  0  0
 32 31  2  0  0  0  0
 33 34  1  0  0  0  0
 35 33  1  6  0  0  0
 35 37  1  0  0  0  0
 36 35  1  0  0  0  0
 38 36  1  0  0  0  0
 39 37  1  0  0  0  0
 40 38  1  1  0  0  0
 40 39  1  0  0  0  0
 41 40  1  0  0  0  0
 41 42  1  0  0  0  0
 43 45  1  0  0  0  0
 43 41  1  0  0  0  0
 44 42  1  0  0  0  0
 45 46  1  0  0  0  0
 46 44  1  0  0  0  0
 46 47  1  0  0  0  0
M  END
>  <minimizedAffinity>
-7.69082355

>  <CNNscore>
0.605168164

>  <CNNaffinity>
8.1691246

$$$$
