
 OpenBabel07302618413D

 39 43  0  0  1  0  0  0  0  0999 V2000
   99.5180  101.2730  103.6350 C   0  0  2  0  0  0  0  0  0  0  0  0
  100.4450  100.5000  102.6780 C   0  0  0  0  0  0  0  0  0  0  0  0
  100.8760   99.1430  103.2360 C   0  0  0  0  0  0  0  0  0  0  0  0
  101.2610   99.2030  104.7160 C   0  0  0  0  0  0  0  0  0  0  0  0
  101.3150  100.6280  105.2530 C   0  0  0  0  0  0  0  0  0  0  0  0
  100.0460  101.3220  105.0180 N   0  0  0  0  0  0  0  0  0  0  0  0
   98.1160  100.6970  103.6270 C   0  0  0  0  0  0  0  0  0  0  0  0
   94.0800   99.1700  102.4220 C   0  0  0  0  0  0  0  0  0  0  0  0
   95.2630   99.5940  101.9440 C   0  0  0  0  0  0  0  0  0  0  0  0
   93.9480   99.1300  103.9480 C   0  0  0  0  0  0  0  0  0  0  0  0
   96.2830   99.9760  102.7940 N   0  0  0  0  0  0  0  0  0  0  0  0
   94.9370   99.5130  104.7350 N   0  0  0  0  0  0  0  0  0  0  0  0
   97.5160  100.4220  102.4570 N   0  0  0  0  0  0  0  0  0  0  0  0
   96.1020   99.9310  104.1690 C   0  0  0  0  0  0  0  0  0  0  0  0
   97.2800  100.3740  104.7220 C   0  0  0  0  0  0  0  0  0  0  0  0
   92.9450   98.8280  101.5210 C   0  0  0  0  0  0  0  0  0  0  0  0
   92.7790   98.7130  104.5800 N   0  0  0  0  0  0  0  0  0  0  0  0
   92.6710   98.4200  106.0090 C   0  0  0  0  0  0  0  0  0  0  0  0
   91.4630   99.1420  104.0690 C   0  0  0  0  0  0  0  0  0  0  0  0
   91.2200   98.7210  106.3790 C   0  0  0  0  0  0  0  0  0  0  0  0
   90.4570   98.5420  105.0710 C   0  0  2  0  0  0  0  0  0  0  0  0
   90.1750   97.1250  104.7930 N   0  0  0  0  0  0  0  0  0  0  0  0
   89.7900   96.6680  105.6150 H   0  0  0  0  0  0  0  0  0  0  0  0
   91.0500   96.6480  104.5640 H   0  0  0  0  0  0  0  0  0  0  0  0
   99.5400  102.3190  105.8570 C   0  0  0  0  0  0  0  0  0  0  0  0
   98.8040  102.0850  106.8150 O   0  0  0  0  0  0  0  0  0  0  0  0
   99.9000  103.7390  105.6270 C   0  0  0  0  0  0  0  0  0  0  0  0
  101.0460  104.0430  104.8790 C   0  0  0  0  0  0  0  0  0  0  0  0
   99.1610  104.7720  106.2410 C   0  0  0  0  0  0  0  0  0  0  0  0
  101.3830  105.3720  104.6370 C   0  0  0  0  0  0  0  0  0  0  0  0
   99.4990  106.0990  105.9590 C   0  0  0  0  0  0  0  0  0  0  0  0
  100.6030  106.4010  105.1540 C   0  0  0  0  0  0  0  0  0  0  0  0
  102.7570  105.7420  103.6700 Cl  0  0  0  0  0  0  0  0  0  0  0  0
   98.0410  104.4840  107.1010 N   0  0  0  0  0  0  0  0  0  0  0  0
   98.1730  104.7810  108.0760 H   0  0  0  0  0  0  0  0  0  0  0  0
   96.4910  104.9770  106.6170 S   0  0  0  0  0  0  0  0  0  0  0  0
   96.5110  105.0040  105.1690 O   0  0  0  0  0  0  0  0  0  0  0  0
   96.0840  106.1410  107.3750 O   0  0  0  0  0  0  0  0  0  0  0  0
   95.4700  103.6020  107.1150 C   0  0  0  0  0  0  0  0  0  0  0  0
  1  7  1  1  0  0  0
  1  6  1  0  0  0  0
  2  3  1  0  0  0  0
  2  1  1  0  0  0  0
  3  4  1  0  0  0  0
  4  5  1  0  0  0  0
  6  5  1  0  0  0  0
  6 25  1  0  0  0  0
  7 15  1  0  0  0  0
  8 10  1  0  0  0  0
  9  8  2  0  0  0  0
  9 11  1  0  0  0  0
 10 17  1  0  0  0  0
 10 12  2  0  0  0  0
 11 14  1  0  0  0  0
 13 11  1  0  0  0  0
 13  7  2  0  0  0  0
 14 15  2  0  0  0  0
 14 12  1  0  0  0  0
 16  8  1  0  0  0  0
 17 18  1  0  0  0  0
 18 20  1  0  0  0  0
 19 17  1  0  0  0  0
 19 21  1  0  0  0  0
 21 22  1  6  0  0  0
 21 20  1  0  0  0  0
 22 23  1  0  0  0  0
 24 22  1  0  0  0  0
 25 26  2  0  0  0  0
 27 25  1  0  0  0  0
 27 29  1  0  0  0  0
 28 27  2  0  0  0  0
 29 34  1  0  0  0  0
 30 28  1  0  0  0  0
 30 32  2  0  0  0  0
 31 29  2  0  0  0  0
 32 31  1  0  0  0  0
 33 30  1  0  0  0  0
 34 35  1  0  0  0  0
 36 34  1  0  0  0  0
 36 39  1  0  0  0  0
 36 38  2  0  0  0  0
 37 36  2  0  0  0  0
M  END
>  <minimizedAffinity>
-9.69881821

>  <CNNscore>
0.763865471

>  <CNNaffinity>
7.54931259

$$$$
