
 OpenBabel08012600043D

 50 54  0  0  1  0  0  0  0  0999 V2000
   99.8700  100.9840  105.7900 C   0  0  2  0  0  3  0  0  0  0  0  0
  101.2030  101.5050  105.2020 C   0  0  1  0  0  3  0  0  0  0  0  0
  101.1590  102.9900  104.9900 C   0  0  0  0  0  0  0  0  0  0  0  0
  100.8210  105.2210  104.9420 C   0  0  0  0  0  0  0  0  0  0  0  0
  100.3510  103.9880  105.4900 C   0  0  0  0  0  3  0  0  0  0  0  0
  101.8910  104.8790  104.1310 C   0  0  0  0  0  0  0  0  0  0  0  0
  102.0920  103.5320  104.1550 O   0  0  0  0  0  0  0  0  0  0  0  0
  102.8270  105.6460  103.2800 C   0  0  0  0  0  1  0  0  0  0  0  0
  100.2750  106.5440  105.2000 C   0  0  0  0  0  0  0  0  0  0  0  0
   99.1570  106.8800  104.8260 O   0  0  0  0  0  0  0  0  0  0  0  0
  101.1270  107.3550  105.8900 O   0  0  0  0  0  0  0  0  0  0  0  0
  100.5310  108.5700  106.3450 C   0  0  0  0  0  1  0  0  0  0  0  0
  102.3010  101.2660  106.1000 O   0  0  0  0  0  0  0  0  0  0  0  0
  102.0290  101.3130  107.4210 C   0  0  0  0  0  0  0  0  0  0  0  0
  101.5860  102.2750  108.0280 O   0  0  0  0  0  0  0  0  0  0  0  0
  102.3820  100.0290  108.0630 C   0  0  0  0  0  0  0  0  0  0  0  0
  103.0420  100.0330  109.2930 C   0  0  0  0  0  3  0  0  0  0  0  0
  102.0910   98.7970  107.4880 C   0  0  0  0  0  3  0  0  0  0  0  0
  103.3940   98.8250  109.8890 C   0  0  0  0  0  3  0  0  0  0  0  0
  102.4210   97.6050  108.0470 N   0  0  0  0  0  0  0  0  0  0  0  0
  103.0670   97.6490  109.2330 C   0  0  0  0  0  3  0  0  0  0  0  0
   99.4710   99.7900  105.0660 O   0  0  0  0  0  0  0  0  0  0  0  0
  100.4080   99.1940  104.2950 C   0  0  0  0  0  0  0  0  0  0  0  0
  101.3320   98.5020  104.6950 O   0  0  0  0  0  0  0  0  0  0  0  0
  100.1950   99.5190  102.8690 C   0  0  0  0  0  0  0  0  0  0  0  0
  101.3010   99.7190  102.0370 C   0  0  0  0  0  3  0  0  0  0  0  0
   98.9320   99.6470  102.3060 C   0  0  0  0  0  3  0  0  0  0  0  0
  101.1030  100.0400  100.6960 C   0  0  0  0  0  3  0  0  0  0  0  0
   98.7110   99.9640  101.0030 N   0  0  0  0  0  0  0  0  0  0  0  0
   99.8030  100.1510  100.2300 C   0  0  0  0  0  3  0  0  0  0  0  0
   98.6880  101.9800  105.7270 C   0  0  1  0  0  3  0  0  0  0  0  0
   97.7990  101.7440  104.4970 C   0  0  0  0  0  2  0  0  0  0  0  0
   96.8520  100.6870  104.7590 O   0  0  0  0  0  0  0  0  0  0  0  0
   95.8130  100.6120  103.8910 C   0  0  0  0  0  0  0  0  0  0  0  0
   95.7620  101.1550  102.8010 O   0  0  0  0  0  0  0  0  0  0  0  0
   94.7160   99.7950  104.4520 C   0  0  0  0  0  0  0  0  0  0  0  0
   94.6960   99.5180  105.8210 C   0  0  0  0  0  3  0  0  0  0  0  0
   93.6920   99.2750  103.6710 C   0  0  0  0  0  3  0  0  0  0  0  0
   93.6680   98.7400  106.3490 C   0  0  0  0  0  3  0  0  0  0  0  0
   92.6780   98.5160  104.1600 N   0  0  0  0  0  0  0  0  0  0  0  0
   92.6920   98.2650  105.4880 C   0  0  0  0  0  3  0  0  0  0  0  0
   97.8260  101.8770  106.8870 O   0  0  0  0  0  0  0  0  0  0  0  0
   96.9720  102.9030  107.1150 C   0  0  0  0  0  0  0  0  0  0  0  0
   95.7940  102.9540  106.8090 O   0  0  0  0  0  0  0  0  0  0  0  0
   97.6940  104.0140  107.7620 C   0  0  0  0  0  0  0  0  0  0  0  0
   98.6870  103.7380  108.7030 C   0  0  0  0  0  3  0  0  0  0  0  0
   97.4320  105.3440  107.4580 C   0  0  0  0  0  3  0  0  0  0  0  0
   99.3590  104.7940  109.3150 C   0  0  0  0  0  3  0  0  0  0  0  0
   98.0730  106.3900  108.0350 N   0  0  0  0  0  0  0  0  0  0  0  0
   99.0190  106.0880  108.9530 C   0  0  0  0  0  3  0  0  0  0  0  0
  1 22  1  6  0  0  0
  2  1  1  0  0  0  0
  2 13  1  1  0  0  0
  3  2  1  0  0  0  0
  3  5  2  0  0  0  0
  4  9  1  0  0  0  0
  4  5  1  0  0  0  0
  6  7  1  0  0  0  0
  6  4  2  0  0  0  0
  7  3  1  0  0  0  0
  8  6  1  0  0  0  0
  9 11  1  0  0  0  0
 10  9  2  0  0  0  0
 11 12  1  0  0  0  0
 13 14  1  0  0  0  0
 14 15  2  0  0  0  0
 14 16  1  0  0  0  0
 16 17  1  0  0  0  0
 17 19  2  0  0  0  0
 18 20  1  0  0  0  0
 18 16  2  0  0  0  0
 20 21  2  0  0  0  0
 21 19  1  0  0  0  0
 23 24  2  0  0  0  0
 23 22  1  0  0  0  0
 25 23  1  0  0  0  0
 26 25  2  0  0  0  0
 27 25  1  0  0  0  0
 28 26  1  0  0  0  0
 29 27  2  0  0  0  0
 30 28  2  0  0  0  0
 30 29  1  0  0  0  0
 31 32  1  6  0  0  0
 31  1  1  0  0  0  0
 31 42  1  0  0  0  0
 32 33  1  0  0  0  0
 34 36  1  0  0  0  0
 34 33  1  0  0  0  0
 35 34  2  0  0  0  0
 36 37  1  0  0  0  0
 37 39  2  0  0  0  0
 38 40  1  0  0  0  0
 38 36  2  0  0  0  0
 40 41  2  0  0  0  0
 41 39  1  0  0  0  0
 42 43  1  0  0  0  0
 43 45  1  0  0  0  0
 44 43  2  0  0  0  0
 45 46  1  0  0  0  0
 46 48  2  0  0  0  0
 47 45  2  0  0  0  0
 47 49  1  0  0  0  0
 49 50  2  0  0  0  0
 50 48  1  0  0  0  0
M  END
>  <minimizedAffinity>
-9.10455227

>  <CNNscore>
0.968093097

>  <CNNaffinity>
7.68192291

$$$$
