
 OpenBabel07312608193D

 30 34  0  0  1  0  0  0  0  0999 V2000
   98.7420  100.8270  102.8980 C   0  0  0  0  0  0  0  0  0  0  0  0
   97.6900  100.4770  103.6060 N   0  0  0  0  0  0  0  0  0  0  0  0
   96.8580   99.9520  102.6490 C   0  0  0  0  0  0  0  0  0  0  0  0
   97.3640   99.9510  101.4090 N   0  0  0  0  0  0  0  0  0  0  0  0
   98.6200  100.5360  101.5720 O   0  0  0  0  0  0  0  0  0  0  0  0
  100.0230  101.4480  103.3310 C   0  0  0  0  0  0  0  0  0  0  0  0
  100.7030  100.5810  104.2930 N   0  0  0  0  0  0  0  0  0  0  0  0
  100.9570   99.2290  104.0590 C   0  0  0  0  0  0  0  0  0  0  0  0
  101.5430   98.4110  104.8820 N   0  0  0  0  0  0  0  0  0  0  0  0
  101.9100   98.9680  106.1010 C   0  0  0  0  0  0  0  0  0  0  0  0
  101.0350  101.1770  105.5110 C   0  0  0  0  0  0  0  0  0  0  0  0
  102.5300   98.3240  107.1290 N   0  0  0  0  0  0  0  0  0  0  0  0
  101.6670  100.2760  106.4050 C   0  0  0  0  0  0  0  0  0  0  0  0
  100.8100  102.3540  105.7800 O   0  0  0  0  0  0  0  0  0  0  0  0
  102.6610   99.2380  108.0680 C   0  0  0  0  0  0  0  0  0  0  0  0
  102.1490  100.4430  107.6710 N   0  0  0  0  0  0  0  0  0  0  0  0
  100.5430   98.6470  102.7230 C   0  0  0  0  0  0  0  0  0  0  0  0
  102.1240  101.6540  108.4500 C   0  0  0  0  0  0  0  0  0  0  0  0
   95.5190   99.4070  102.9570 C   0  0  2  0  0  0  0  0  0  0  0  0
   94.9890   98.4480  101.9070 C   0  0  0  0  0  0  0  0  0  0  0  0
   94.4160  100.4470  102.9880 C   0  0  0  0  0  0  0  0  0  0  0  0
   93.5550   98.4590  102.0200 O   0  0  0  0  0  0  0  0  0  0  0  0
   93.1590   99.6030  102.8020 C   0  0  1  0  0  0  0  0  0  0  0  0
   92.5270   99.1780  104.1170 C   0  0  0  0  0  0  0  0  0  0  0  0
   91.1330   98.9960  104.1870 C   0  0  0  0  0  0  0  0  0  0  0  0
   93.2880   98.9440  105.2730 C   0  0  0  0  0  0  0  0  0  0  0  0
   90.5190   98.6090  105.3810 C   0  0  0  0  0  0  0  0  0  0  0  0
   92.6750   98.5560  106.4680 C   0  0  0  0  0  0  0  0  0  0  0  0
   91.2940   98.3930  106.5170 C   0  0  0  0  0  0  0  0  0  0  0  0
   90.5390   97.9160  107.9870 Cl  0  0  0  0  0  0  0  0  0  0  0  0
  1  6  1  0  0  0  0
  1  2  2  0  0  0  0
  3  2  1  0  0  0  0
  4  5  1  0  0  0  0
  4  3  2  0  0  0  0
  5  1  1  0  0  0  0
  6  7  1  0  0  0  0
  7 11  1  0  0  0  0
  8  7  1  0  0  0  0
  8  9  2  0  0  0  0
  9 10  1  0  0  0  0
 10 13  2  0  0  0  0
 10 12  1  0  0  0  0
 11 14  2  0  0  0  0
 11 13  1  0  0  0  0
 12 15  2  0  0  0  0
 13 16  1  0  0  0  0
 16 15  1  0  0  0  0
 16 18  1  0  0  0  0
 17  8  1  0  0  0  0
 19  3  1  6  0  0  0
 19 21  1  0  0  0  0
 20 22  1  0  0  0  0
 20 19  1  0  0  0  0
 22 23  1  0  0  0  0
 23 21  1  0  0  0  0
 23 24  1  1  0  0  0
 24 25  2  0  0  0  0
 24 26  1  0  0  0  0
 25 27  1  0  0  0  0
 26 28  2  0  0  0  0
 27 29  2  0  0  0  0
 28 29  1  0  0  0  0
 29 30  1  0  0  0  0
M  END
>  <minimizedAffinity>
-7.8876009

>  <CNNscore>
0.896316051

>  <CNNaffinity>
7.3376832

$$$$
