
 OpenBabel08012600283D

 47 52  0  0  1  0  0  0  0  0999 V2000
  101.8780  100.4800  106.0700 O   0  0  0  0  0  0  0  0  0  0  0  0
  102.2600   99.3690  106.7560 C   0  0  0  0  0  0  0  0  0  0  0  0
  102.6300   98.3270  106.2290 O   0  0  0  0  0  0  0  0  0  0  0  0
  102.1750   99.6150  108.2500 C   0  0  1  0  0  3  0  0  0  0  0  0
  103.2550   98.8230  108.9830 C   0  0  0  0  0  1  0  0  0  0  0  0
  102.2200  101.1180  108.5550 C   0  0  0  0  0  2  0  0  0  0  0  0
  102.1130  101.9650  107.3800 N   0  0  0  0  0  0  0  0  0  0  0  0
  101.1770  102.9720  107.2800 C   0  0  0  0  0  0  0  0  0  0  0  0
  100.3440  103.2010  108.1500 O   0  0  0  0  0  0  0  0  0  0  0  0
  102.8930  101.9340  106.7340 H   0  0  0  0  0  0  0  0  0  0  0  0
  101.2470  103.8350  106.0660 C   0  0  0  0  0  0  0  0  0  0  0  0
  102.2700  103.5900  105.1390 C   0  0  0  0  0  3  0  0  0  0  0  0
  100.3450  104.8830  105.8350 C   0  0  0  0  0  3  0  0  0  0  0  0
  102.3780  104.3690  103.9850 C   0  0  0  0  0  3  0  0  0  0  0  0
  100.4560  105.6590  104.6760 C   0  0  0  0  0  3  0  0  0  0  0  0
  101.4690  105.3990  103.7530 C   0  0  0  0  0  3  0  0  0  0  0  0
  101.3620  100.2250  104.7630 C   0  0  0  0  0  2  0  0  0  0  0  0
   99.8840  100.5920  104.6910 C   0  0  0  0  0  0  0  0  0  0  0  0
   99.3550  101.2990  105.5550 O   0  0  0  0  0  0  0  0  0  0  0  0
   99.0490  100.0300  103.5210 C   0  0  1  0  0  0  0  0  0  0  0  0
   99.4220  100.7310  102.3240 O   0  0  0  0  0  0  0  0  0  0  0  0
   99.2510   98.5580  103.1500 C   0  0  2  0  0  3  0  0  0  0  0  0
   97.5140  100.1370  103.7690 C   0  0  1  0  0  0  0  0  0  0  0  0
  100.3020   99.8740  101.5950 C   0  0  0  0  0  0  0  0  0  0  0  0
  100.2440   98.5480  102.1300 O   0  0  0  0  0  0  0  0  0  0  0  0
   97.8910   98.0320  102.6350 C   0  0  0  0  0  2  0  0  0  0  0  0
   96.9040  101.5430  103.5950 C   0  0  0  0  0  2  0  0  0  0  0  0
   96.9930   99.2710  102.5990 C   0  0  1  0  0  3  0  0  0  0  0  0
   95.3590  101.5300  103.5190 C   0  0  1  0  0  3  0  0  0  0  0  0
   95.4680   99.0950  102.6070 C   0  0  1  0  0  3  0  0  0  0  0  0
   94.7980  100.5060  102.4780 C   0  0  1  0  0  0  0  0  0  0  0  0
   95.0240   98.1680  101.4620 C   0  0  0  0  0  2  0  0  0  0  0  0
   93.2190  100.4020  102.4010 C   0  0  1  0  0  0  0  0  0  0  0  0
   93.5060   98.0500  101.3710 C   0  0  0  0  0  2  0  0  0  0  0  0
   92.5940  101.7720  102.1350 C   0  0  0  0  0  3  0  0  0  0  0  0
   92.8730   99.4150  101.2700 C   0  0  0  0  0  0  0  0  0  0  0  0
   91.8260  102.0790  101.0810 C   0  0  0  0  0  3  0  0  0  0  0  0
   92.1000   99.7280  100.2150 C   0  0  0  0  0  3  0  0  0  0  0  0
   91.5140  101.0730  100.0490 C   0  0  0  0  0  0  0  0  0  0  0  0
   90.7960  101.3430   99.0950 O   0  0  0  0  0  0  0  0  0  0  0  0
   97.1710   99.5530  105.1660 C   0  0  0  0  0  1  0  0  0  0  0  0
  101.7310  100.3920  101.7210 C   0  0  0  0  0  1  0  0  0  0  0  0
   99.8760   99.8450  100.1320 C   0  0  0  0  0  1  0  0  0  0  0  0
   95.2110  101.0010  101.2480 F   0  0  0  0  0  0  0  0  0  0  0  0
   92.5620   99.8800  103.6990 C   0  0  0  0  0  1  0  0  0  0  0  0
   94.8270  101.3300  104.8250 O   0  0  0  0  0  0  0  0  0  0  0  0
   95.1540  102.0570  105.3860 H   0  0  0  0  0  0  0  0  0  0  0  0
  1  2  1  0  0  0  0
  2  4  1  0  0  0  0
  3  2  2  0  0  0  0
  4  6  1  0  0  0  0
  4  5  1  1  0  0  0
  7  6  1  0  0  0  0
  8  7  1  0  0  0  0
  8  9  2  0  0  0  0
 10  7  1  0  0  0  0
 11  8  1  0  0  0  0
 12 11  2  0  0  0  0
 13 11  1  0  0  0  0
 14 12  1  0  0  0  0
 15 13  2  0  0  0  0
 16 14  2  0  0  0  0
 16 15  1  0  0  0  0
 17  1  1  0  0  0  0
 18 17  1  0  0  0  0
 18 19  2  0  0  0  0
 20 23  1  0  0  0  0
 20 18  1  1  0  0  0
 21 20  1  0  0  0  0
 22 26  1  6  0  0  0
 22 20  1  0  0  0  0
 23 41  1  1  0  0  0
 24 42  1  0  0  0  0
 24 25  1  0  0  0  0
 24 21  1  0  0  0  0
 25 22  1  0  0  0  0
 27 23  1  0  0  0  0
 28 30  1  0  0  0  0
 28 26  1  1  0  0  0
 28 23  1  0  0  0  0
 29 27  1  0  0  0  0
 29 46  1  1  0  0  0
 30 32  1  6  0  0  0
 31 44  1  6  0  0  0
 31 30  1  0  0  0  0
 31 29  1  0  0  0  0
 33 31  1  0  0  0  0
 33 45  1  1  0  0  0
 34 32  1  0  0  0  0
 35 33  1  0  0  0  0
 36 34  1  0  0  0  0
 36 33  1  0  0  0  0
 37 35  2  0  0  0  0
 38 36  2  0  0  0  0
 39 38  1  0  0  0  0
 39 37  1  0  0  0  0
 40 39  2  0  0  0  0
 43 24  1  0  0  0  0
 46 47  1  0  0  0  0
M  END
>  <minimizedAffinity>
-7.17533159

>  <CNNscore>
0.833239436

>  <CNNaffinity>
8.20993519

$$$$
