
 OpenBabel07312620233D

 40 44  0  0  1  0  0  0  0  0999 V2000
   99.0870  102.5920  105.2370 C   0  0  0  0  0  2  0  0  0  0  0  0
  100.4310  101.8760  105.4180 C   0  0  0  0  0  2  0  0  0  0  0  0
  100.7930  101.0380  104.1860 C   0  0  1  0  0  3  0  0  0  0  0  0
  101.3530   99.6620  104.6200 C   0  0  0  0  0  0  0  0  0  0  0  0
  103.4520   99.3130  108.3990 N   0  0  0  0  0  0  0  0  0  0  0  0
  102.2060  100.0950  108.3120 C   0  0  0  0  0  2  0  0  0  0  0  0
  103.6530   98.4340  107.2280 C   0  0  0  0  0  2  0  0  0  0  0  0
  101.9330  100.6110  106.8890 C   0  0  0  0  0  2  0  0  0  0  0  0
  102.4190   98.2430  106.3240 C   0  0  0  0  0  2  0  0  0  0  0  0
  101.8280   99.5210  105.9130 N   0  0  0  0  0  0  0  0  0  0  0  0
  101.3250   98.7140  103.8270 O   0  0  0  0  0  0  0  0  0  0  0  0
  103.5260   98.5770  109.6580 C   0  0  0  0  0  1  0  0  0  0  0  0
   99.6010  100.7690  103.3760 N   0  0  0  0  0  0  0  0  0  0  0  0
   98.5700  100.0050  103.8810 C   0  0  0  0  0  0  0  0  0  0  0  0
   98.6550   99.3590  104.9200 O   0  0  0  0  0  0  0  0  0  0  0  0
   99.3470  101.5330  102.7570 H   0  0  0  0  0  0  0  0  0  0  0  0
   97.2940  100.0100  103.1080 C   0  0  0  0  0  0  0  0  0  0  0  0
   97.1360  100.7380  101.9240 C   0  0  0  0  0  3  0  0  0  0  0  0
   96.2300   99.2340  103.5840 C   0  0  0  0  0  3  0  0  0  0  0  0
   95.9170  100.7060  101.2360 C   0  0  0  0  0  3  0  0  0  0  0  0
   95.0090   99.1980  102.9000 C   0  0  0  0  0  3  0  0  0  0  0  0
   94.8460   99.9400  101.7230 C   0  0  0  0  0  0  0  0  0  0  0  0
   93.6140   99.9300  101.0170 N   0  0  0  0  0  0  0  0  0  0  0  0
   92.6560   98.9430  100.9580 C   0  0  0  0  0  3  0  0  0  0  0  0
   93.2080  100.9880  100.2700 N   0  0  0  0  0  0  0  0  0  0  0  0
   91.6680   99.4590  100.1580 C   0  0  0  0  0  3  0  0  0  0  0  0
   92.0200  100.7090   99.7520 N   0  0  0  0  0  0  0  0  0  0  0  0
   98.1390  102.4070  106.4240 C   0  0  0  0  0  2  0  0  0  0  0  0
   98.8770  102.4160  107.6900 N   0  0  0  0  0  0  0  0  0  0  0  0
   99.6210  101.7210  107.6460 H   0  0  0  0  0  0  0  0  0  0  0  0
   99.4210  103.7460  108.0000 C   0  0  2  0  0  3  0  0  0  0  0  0
   98.8850  104.5200  109.1680 C   0  0  0  0  0  2  0  0  0  0  0  0
   98.5570  104.9710  107.7640 C   0  0  1  0  0  3  0  0  0  0  0  0
   99.1720  106.2350  107.2110 C   0  0  0  0  0  0  0  0  0  0  0  0
   99.8990  106.2290  106.0050 C   0  0  0  0  0  3  0  0  0  0  0  0
   99.0740  107.4560  107.9030 C   0  0  0  0  0  3  0  0  0  0  0  0
  100.4910  107.3920  105.5050 C   0  0  0  0  0  3  0  0  0  0  0  0
   99.6600  108.6230  107.4070 C   0  0  0  0  0  3  0  0  0  0  0  0
  100.3650  108.5780  106.2130 C   0  0  0  0  0  0  0  0  0  0  0  0
  100.9360  109.6930  105.7370 F   0  0  0  0  0  0  0  0  0  0  0  0
  1  2  1  0  0  0  0
  1 28  1  0  0  0  0
  3  4  1  0  0  0  0
  3  2  1  1  0  0  0
  4 10  1  0  0  0  0
  5 12  1  0  0  0  0
  6  5  1  0  0  0  0
  7  5  1  0  0  0  0
  8  6  1  0  0  0  0
  9  7  1  0  0  0  0
 10  9  1  0  0  0  0
 10  8  1  0  0  0  0
 11  4  2  0  0  0  0
 13 14  1  0  0  0  0
 13  3  1  0  0  0  0
 14 15  2  0  0  0  0
 16 13  1  0  0  0  0
 17 19  1  0  0  0  0
 17 14  1  0  0  0  0
 18 17  2  0  0  0  0
 20 22  2  0  0  0  0
 20 18  1  0  0  0  0
 21 19  2  0  0  0  0
 22 21  1  0  0  0  0
 23 22  1  0  0  0  0
 24 23  1  0  0  0  0
 25 23  1  0  0  0  0
 26 24  2  0  0  0  0
 27 26  1  0  0  0  0
 27 25  2  0  0  0  0
 28 29  1  0  0  0  0
 30 29  1  0  0  0  0
 31 29  1  1  0  0  0
 31 32  1  0  0  0  0
 33 34  1  6  0  0  0
 33 31  1  0  0  0  0
 33 32  1  0  0  0  0
 34 36  1  0  0  0  0
 35 34  2  0  0  0  0
 37 35  1  0  0  0  0
 37 39  2  0  0  0  0
 38 36  2  0  0  0  0
 39 38  1  0  0  0  0
 40 39  1  0  0  0  0
M  END
>  <minimizedAffinity>
-8.42830944

>  <CNNscore>
0.527797937

>  <CNNaffinity>
7.68281555

$$$$
