
 OpenBabel07312601503D

 37 42  0  0  1  0  0  0  0  0999 V2000
   98.0510  102.3800  103.7760 N   0  0  0  0  0  0  0  0  0  0  0  0
   99.0670  101.7830  104.4960 C   0  0  0  0  0  0  0  0  0  0  0  0
   98.9970  100.5890  105.0280 N   0  0  0  0  0  0  0  0  0  0  0  0
  100.0670  100.0860  105.7440 C   0  0  0  0  0  0  0  0  0  0  0  0
  101.2420  100.7210  105.9700 C   0  0  0  0  0  0  0  0  0  0  0  0
  101.3450  102.0030  105.4010 N   0  0  0  0  0  0  0  0  0  0  0  0
  102.3480  102.9280  105.4070 N   0  0  0  0  0  0  0  0  0  0  0  0
  101.8270  103.9300  104.6970 C   0  0  0  0  0  0  0  0  0  0  0  0
  100.5620  103.7400  104.2340 N   0  0  0  0  0  0  0  0  0  0  0  0
  100.2950  102.5330  104.6840 C   0  0  0  0  0  0  0  0  0  0  0  0
   98.2710  103.3150  103.4460 H   0  0  0  0  0  0  0  0  0  0  0  0
   96.7740  101.9220  103.4260 C   0  0  0  0  0  0  0  0  0  0  0  0
   94.0860  101.1430  102.7450 C   0  0  0  0  0  0  0  0  0  0  0  0
   95.0600  100.2120  103.1200 C   0  0  0  0  0  0  0  0  0  0  0  0
   94.4970  102.4790  102.7260 C   0  0  0  0  0  0  0  0  0  0  0  0
   96.3730  100.5890  103.4570 C   0  0  0  0  0  0  0  0  0  0  0  0
   95.8070  102.8620  103.0530 C   0  0  0  0  0  0  0  0  0  0  0  0
   92.7950  100.7820  102.4650 N   0  0  0  0  0  0  0  0  0  0  0  0
   90.9980  101.0120  100.2500 N   0  0  0  0  0  0  0  0  0  0  0  0
   92.1630  100.0890  100.1690 C   0  0  0  0  0  0  0  0  0  0  0  0
   90.5720  100.9290  101.6730 C   0  0  1  0  0  0  0  0  0  0  0  0
   92.3650   99.6330  101.6390 C   0  0  2  0  0  0  0  0  0  0  0  0
   90.9060   99.4960  102.0750 C   0  0  0  0  0  0  0  0  0  0  0  0
   91.6380  101.7030  102.5220 C   0  0  0  0  0  0  0  0  0  0  0  0
   89.9470  100.8750   99.2410 C   0  0  0  0  0  0  0  0  0  0  0  0
   88.9040  101.9940   99.1820 C   0  0  0  0  0  0  0  0  0  0  0  0
   89.2530   99.5150   99.3800 C   0  0  0  0  0  0  0  0  0  0  0  0
  102.3130  100.1430  106.7430 C   0  0  0  0  0  0  0  0  0  0  0  0
  103.2200  100.8330  107.5190 C   0  0  0  0  0  0  0  0  0  0  0  0
  102.6850   98.7740  106.8740 C   0  0  0  0  0  0  0  0  0  0  0  0
  104.1190   99.9900  108.0860 O   0  0  0  0  0  0  0  0  0  0  0  0
  103.8060   98.7200  107.6860 C   0  0  0  0  0  0  0  0  0  0  0  0
  104.6530   97.6320  108.1310 C   0  0  0  0  0  0  0  0  0  0  0  0
  104.4970   97.2410  109.4350 N   0  0  0  0  0  0  0  0  0  0  0  0
  105.4680   97.0340  107.4310 O   0  0  0  0  0  0  0  0  0  0  0  0
  103.7730   97.6030  110.0360 H   0  0  0  0  0  0  0  0  0  0  0  0
  105.0000   96.4100  109.7210 H   0  0  0  0  0  0  0  0  0  0  0  0
  1  2  1  0  0  0  0
  2 10  1  0  0  0  0
  2  3  2  0  0  0  0
  3  4  1  0  0  0  0
  4  5  2  0  0  0  0
  5 28  1  0  0  0  0
  6  7  1  0  0  0  0
  6  5  1  0  0  0  0
  8  7  2  0  0  0  0
  9 10  2  0  0  0  0
  9  8  1  0  0  0  0
 10  6  1  0  0  0  0
 11  1  1  0  0  0  0
 12 16  1  0  0  0  0
 12  1  1  0  0  0  0
 13 14  1  0  0  0  0
 14 16  2  0  0  0  0
 15 13  2  0  0  0  0
 15 17  1  0  0  0  0
 17 12  2  0  0  0  0
 18 24  1  0  0  0  0
 18 13  1  0  0  0  0
 19 21  1  0  0  0  0
 20 19  1  0  0  0  0
 21 23  1  1  0  0  0
 21 24  1  0  0  0  0
 22 20  1  6  0  0  0
 22 23  1  0  0  0  0
 22 18  1  0  0  0  0
 25 27  1  0  0  0  0
 25 19  1  0  0  0  0
 26 25  1  0  0  0  0
 28 30  1  0  0  0  0
 28 29  2  0  0  0  0
 29 31  1  0  0  0  0
 30 32  2  0  0  0  0
 32 31  1  0  0  0  0
 32 33  1  0  0  0  0
 33 34  1  0  0  0  0
 34 37  1  0  0  0  0
 34 36  1  0  0  0  0
 35 33  2  0  0  0  0
M  END
>  <minimizedAffinity>
-6.2426157

>  <CNNscore>
0.547212243

>  <CNNaffinity>
6.98853827

$$$$
