
 OpenBabel07312623353D

 43 46  0  0  0  0  0  0  0  0999 V2000
   95.3680   99.8740  102.2340 C   0  0  0  0  0  0  0  0  0  0  0  0
   94.5560   99.4760  101.1630 C   0  0  0  0  0  3  0  0  0  0  0  0
   93.7090  100.3910  100.5400 C   0  0  0  0  0  3  0  0  0  0  0  0
   93.6670  101.7140  100.9770 C   0  0  0  0  0  3  0  0  0  0  0  0
   94.4780  102.1390  102.0390 C   0  0  0  0  0  0  0  0  0  0  0  0
   95.3280  101.2110  102.6600 C   0  0  0  0  0  3  0  0  0  0  0  0
   96.2930   98.8820  102.8960 C   0  0  0  0  0  2  0  0  0  0  0  0
   97.6110   99.1050  102.4040 O   0  0  0  0  0  0  0  0  0  0  0  0
   98.5850   99.3920  103.3190 C   0  0  0  0  0  0  0  0  0  0  0  0
  100.7610   99.8130  105.0320 C   0  0  0  0  0  0  0  0  0  0  0  0
   99.5370  100.4420  105.2850 C   0  0  0  0  0  3  0  0  0  0  0  0
  100.9000   98.9740  103.9250 C   0  0  0  0  0  3  0  0  0  0  0  0
   98.4490  100.2290  104.4290 C   0  0  0  0  0  3  0  0  0  0  0  0
   99.8100   98.7650  103.0780 C   0  0  0  0  0  3  0  0  0  0  0  0
  101.9260  100.0440  105.9190 C   0  0  0  0  0  0  0  0  0  0  0  0
  103.3150   98.8920  107.6200 C   0  0  0  0  0  0  0  0  0  0  0  0
  104.0600   99.7710  108.0190 O   0  0  0  0  0  0  0  0  0  0  0  0
  102.2960   98.9720  106.7040 N   0  0  0  0  0  0  0  0  0  0  0  0
  102.5620  101.1610  105.9470 N   0  0  0  0  0  0  0  0  0  0  0  0
  101.8280   98.0890  106.5720 H   0  0  0  0  0  0  0  0  0  0  0  0
  102.1410  101.8570  105.3240 H   0  0  0  0  0  0  0  0  0  0  0  0
  103.3560   97.6060  108.0740 O   0  0  0  0  0  0  0  0  0  0  0  0
  102.7800   97.4270  109.3750 C   0  0  0  0  0  2  0  0  0  0  0  0
  103.2430   98.5690  110.2590 C   0  0  0  0  0  1  0  0  0  0  0  0
   94.4140  103.5720  102.5170 C   0  0  0  0  0  2  0  0  0  0  0  0
   94.2750  103.5820  103.9360 O   0  0  0  0  0  0  0  0  0  0  0  0
   95.4200  103.7110  104.6730 C   0  0  0  0  0  0  0  0  0  0  0  0
   95.7600  102.9720  105.8030 C   0  0  0  0  0  3  0  0  0  0  0  0
   96.3000  104.6910  104.2190 C   0  0  0  0  0  3  0  0  0  0  0  0
   96.9680  103.2120  106.4730 C   0  0  0  0  0  3  0  0  0  0  0  0
   97.5050  104.9330  104.8850 C   0  0  0  0  0  3  0  0  0  0  0  0
   97.8670  104.1950  106.0280 C   0  0  0  0  0  0  0  0  0  0  0  0
   99.2020  104.5030  106.7480 C   0  0  0  0  0  0  0  0  0  0  0  0
   99.7180  103.3360  107.6330 C   0  0  0  0  0  1  0  0  0  0  0  0
   98.9100  105.6760  107.7210 C   0  0  0  0  0  1  0  0  0  0  0  0
  100.3300  104.8040  105.7300 C   0  0  0  0  0  0  0  0  0  0  0  0
  100.7350  106.1390  105.5170 C   0  0  0  0  0  3  0  0  0  0  0  0
  100.9710  103.8010  104.9800 C   0  0  0  0  0  3  0  0  0  0  0  0
  101.7380  106.4550  104.5970 C   0  0  0  0  0  3  0  0  0  0  0  0
  101.9760  104.1180  104.0580 C   0  0  0  0  0  3  0  0  0  0  0  0
  102.3500  105.4420  103.8750 C   0  0  0  0  0  0  0  0  0  0  0  0
  103.3210  105.7910  102.9850 O   0  0  0  0  0  0  0  0  0  0  0  0
  103.6510  104.9850  102.5560 H   0  0  0  0  0  0  0  0  0  0  0  0
  1  6  1  0  0  0  0
  1  7  1  0  0  0  0
  2  1  2  0  0  0  0
  3  4  2  0  0  0  0
  3  2  1  0  0  0  0
  4  5  1  0  0  0  0
  5 25  1  0  0  0  0
  5  6  2  0  0  0  0
  8  7  1  0  0  0  0
  8  9  1  0  0  0  0
  9 13  1  0  0  0  0
 10 11  1  0  0  0  0
 10 15  1  0  0  0  0
 12 10  2  0  0  0  0
 13 11  2  0  0  0  0
 14  9  2  0  0  0  0
 14 12  1  0  0  0  0
 15 19  2  0  0  0  0
 15 18  1  0  0  0  0
 16 17  2  0  0  0  0
 16 22  1  0  0  0  0
 18 16  1  0  0  0  0
 20 18  1  0  0  0  0
 21 19  1  0  0  0  0
 22 23  1  0  0  0  0
 23 24  1  0  0  0  0
 25 26  1  0  0  0  0
 26 27  1  0  0  0  0
 27 28  1  0  0  0  0
 28 30  2  0  0  0  0
 29 27  2  0  0  0  0
 29 31  1  0  0  0  0
 31 32  2  0  0  0  0
 32 30  1  0  0  0  0
 32 33  1  0  0  0  0
 33 34  1  0  0  0  0
 33 35  1  0  0  0  0
 36 33  1  0  0  0  0
 37 36  1  0  0  0  0
 38 36  2  0  0  0  0
 39 37  2  0  0  0  0
 40 38  1  0  0  0  0
 41 40  2  0  0  0  0
 41 39  1  0  0  0  0
 42 41  1  0  0  0  0
 43 42  1  0  0  0  0
M  END
>  <minimizedAffinity>
-9.39440441

>  <CNNscore>
0.606098294

>  <CNNaffinity>
7.71440458

$$$$
