
 OpenBabel08012600463D

 51 57  0  0  1  0  0  0  0  0999 V2000
   89.9320   99.9470   99.5600 C   0  0  0  0  0  1  0  0  0  0  0  0
   90.3640   99.8450  100.9980 C   0  0  0  0  0  0  0  0  0  0  0  0
   91.7360   99.8600  101.3160 C   0  0  0  0  0  3  0  0  0  0  0  0
   92.1910   99.7830  102.6380 C   0  0  0  0  0  0  0  0  0  0  0  0
   91.2150   99.6760  103.6400 C   0  0  0  0  0  3  0  0  0  0  0  0
   89.8460   99.6640  103.3450 C   0  0  0  0  0  3  0  0  0  0  0  0
   89.4130   99.7470  102.0250 C   0  0  0  0  0  0  0  0  0  0  0  0
   88.1060   99.7340  101.6220 O   0  0  0  0  0  0  0  0  0  0  0  0
   87.1030   99.4930  102.6040 C   0  0  0  0  0  2  0  0  0  0  0  0
   87.3560   98.1050  103.1790 C   0  0  2  0  0  3  0  0  0  0  0  0
   86.4100   97.0460  102.6600 C   0  0  0  0  0  2  0  0  0  0  0  0
   87.1230   98.0030  104.6750 C   0  0  0  0  0  2  0  0  0  0  0  0
   86.2950   96.0480  103.6880 O   0  0  0  0  0  0  0  0  0  0  0  0
   87.0070   96.4850  104.8930 C   0  0  2  0  0  0  0  0  0  0  0  0
   86.0970   96.1120  106.0820 C   0  0  0  0  0  2  0  0  0  0  0  0
   86.5120   94.9660  106.8530 N   0  0  0  0  0  0  0  0  0  0  0  0
   86.1420   93.6680  106.6830 C   0  0  0  0  0  3  0  0  0  0  0  0
   87.4560   95.0750  107.8050 N   0  0  0  0  0  0  0  0  0  0  0  0
   86.7820   92.9120  107.5410 N   0  0  0  0  0  0  0  0  0  0  0  0
   87.5640   93.8080  108.2130 C   0  0  0  0  0  3  0  0  0  0  0  0
   88.3350   95.7230  104.9490 C   0  0  0  0  0  0  0  0  0  0  0  0
   88.4790   94.4760  104.3050 C   0  0  0  0  0  3  0  0  0  0  0  0
   89.4380   96.2020  105.6750 C   0  0  0  0  0  0  0  0  0  0  0  0
   89.6810   93.7650  104.3700 C   0  0  0  0  0  3  0  0  0  0  0  0
   90.6380   95.4990  105.7460 C   0  0  0  0  0  3  0  0  0  0  0  0
   90.7490   94.2860  105.0890 C   0  0  0  0  0  0  0  0  0  0  0  0
   89.3590   97.3600  106.3420 F   0  0  0  0  0  0  0  0  0  0  0  0
   91.9010   93.6040  105.1460 F   0  0  0  0  0  0  0  0  0  0  0  0
   93.5490   99.7720  102.9940 N   0  0  0  0  0  0  0  0  0  0  0  0
   94.3530  100.9840  102.7060 C   0  0  0  0  0  2  0  0  0  0  0  0
   93.8060   99.2550  104.3640 C   0  0  0  0  0  2  0  0  0  0  0  0
   95.8600  100.7080  102.9140 C   0  0  0  0  0  2  0  0  0  0  0  0
   95.3160   98.9950  104.5900 C   0  0  0  0  0  2  0  0  0  0  0  0
   96.1270  100.2050  104.2830 N   0  0  0  0  0  0  0  0  0  0  0  0
   97.4640  100.1120  104.7010 C   0  0  0  0  0  0  0  0  0  0  0  0
   98.0120  101.1370  105.4950 C   0  0  0  0  0  3  0  0  0  0  0  0
   98.3190   99.0590  104.3430 C   0  0  0  0  0  3  0  0  0  0  0  0
   99.3440  101.1100  105.9270 C   0  0  0  0  0  3  0  0  0  0  0  0
   99.6540   99.0210  104.7690 C   0  0  0  0  0  3  0  0  0  0  0  0
  100.1750  100.0540  105.5510 C   0  0  0  0  0  0  0  0  0  0  0  0
  101.6030   99.9790  105.9760 C   0  0  0  0  0  0  0  0  0  0  0  0
  102.3660  100.8650  105.6070 O   0  0  0  0  0  0  0  0  0  0  0  0
  101.9110   98.9110  106.8000 N   0  0  0  0  0  0  0  0  0  0  0  0
  101.1350   98.3570  107.1360 H   0  0  0  0  0  0  0  0  0  0  0  0
  103.1790   98.5590  107.3070 C   0  0  0  0  0  0  0  0  0  0  0  0
  103.9500   97.6740  106.5390 C   0  0  0  0  0  3  0  0  0  0  0  0
  103.7030   99.0480  108.5060 C   0  0  0  0  0  3  0  0  0  0  0  0
  105.2220   97.2830  106.9670 C   0  0  0  0  0  3  0  0  0  0  0  0
  104.9740   98.6550  108.9370 C   0  0  0  0  0  3  0  0  0  0  0  0
  105.7210   97.7760  108.1640 C   0  0  0  0  0  0  0  0  0  0  0  0
  106.9380   97.4010  108.5760 F   0  0  0  0  0  0  0  0  0  0  0  0
  1  2  1  0  0  0  0
  2  3  2  0  0  0  0
  2  7  1  0  0  0  0
  3  4  1  0  0  0  0
  4 29  1  0  0  0  0
  4  5  2  0  0  0  0
  6  5  1  0  0  0  0
  7  6  2  0  0  0  0
  8  7  1  0  0  0  0
  8  9  1  0  0  0  0
 10  9  1  6  0  0  0
 10 12  1  0  0  0  0
 11 10  1  0  0  0  0
 11 13  1  0  0  0  0
 12 14  1  0  0  0  0
 13 14  1  0  0  0  0
 14 21  1  0  0  0  0
 14 15  1  1  0  0  0
 15 16  1  0  0  0  0
 16 18  1  0  0  0  0
 17 16  1  0  0  0  0
 17 19  2  0  0  0  0
 18 20  2  0  0  0  0
 19 20  1  0  0  0  0
 21 23  1  0  0  0  0
 22 24  1  0  0  0  0
 22 21  2  0  0  0  0
 23 25  2  0  0  0  0
 23 27  1  0  0  0  0
 24 26  2  0  0  0  0
 26 28  1  0  0  0  0
 26 25  1  0  0  0  0
 29 31  1  0  0  0  0
 30 32  1  0  0  0  0
 30 29  1  0  0  0  0
 31 33  1  0  0  0  0
 32 34  1  0  0  0  0
 34 33  1  0  0  0  0
 34 35  1  0  0  0  0
 35 36  1  0  0  0  0
 36 38  2  0  0  0  0
 37 35  2  0  0  0  0
 37 39  1  0  0  0  0
 39 40  2  0  0  0  0
 40 38  1  0  0  0  0
 40 41  1  0  0  0  0
 41 43  1  0  0  0  0
 42 41  2  0  0  0  0
 43 44  1  0  0  0  0
 43 45  1  0  0  0  0
 45 47  1  0  0  0  0
 46 48  1  0  0  0  0
 46 45  2  0  0  0  0
 47 49  2  0  0  0  0
 48 50  2  0  0  0  0
 50 51  1  0  0  0  0
 50 49  1  0  0  0  0
M  END
>  <minimizedAffinity>
-7.77259636

>  <CNNscore>
0.547393143

>  <CNNaffinity>
7.56684542

$$$$
