
 OpenBabel07312617433D

 54 58  0  0  1  0  0  0  0  0999 V2000
   96.6630  102.4680  106.9690 C   0  0  0  0  0  0  0  0  0  0  0  0
   97.3630  101.5040  106.2350 C   0  0  0  0  0  3  0  0  0  0  0  0
   98.7110  101.2500  106.5080 C   0  0  0  0  0  3  0  0  0  0  0  0
   99.3790  101.9560  107.5180 C   0  0  0  0  0  0  0  0  0  0  0  0
   98.6860  102.9360  108.2390 C   0  0  0  0  0  3  0  0  0  0  0  0
   97.3360  103.1850  107.9660 C   0  0  0  0  0  3  0  0  0  0  0  0
   95.2000  102.7430  106.6870 C   0  0  0  0  0  2  0  0  0  0  0  0
   94.9040  103.0790  105.2030 C   0  0  1  0  0  3  0  0  0  0  0  0
   96.0070  104.0210  104.6890 C   0  0  0  0  0  0  0  0  0  0  0  0
   97.2710  103.7270  105.1800 N   0  0  0  0  0  0  0  0  0  0  0  0
   95.7360  104.9320  103.9070 O   0  0  0  0  0  0  0  0  0  0  0  0
   97.3920  102.8110  105.5970 H   0  0  0  0  0  0  0  0  0  0  0  0
   98.4340  104.5090  105.0540 C   0  0  0  0  0  0  0  0  0  0  0  0
  100.8750  105.9350  104.8960 C   0  0  0  0  0  0  0  0  0  0  0  0
  100.8430  104.5410  104.7440 C   0  0  0  0  0  3  0  0  0  0  0  0
   99.6620  106.6020  105.1120 C   0  0  0  0  0  3  0  0  0  0  0  0
   99.6390  103.8340  104.8310 C   0  0  0  0  0  3  0  0  0  0  0  0
   98.4520  105.8990  105.1870 C   0  0  0  0  0  3  0  0  0  0  0  0
  102.1480  106.6750  104.8570 C   0  0  0  0  0  0  0  0  0  0  0  0
  104.5820  108.1190  104.7830 C   0  0  0  0  0  0  0  0  0  0  0  0
  104.3700  107.0420  103.9190 C   0  0  0  0  0  3  0  0  0  0  0  0
  103.5780  108.4730  105.6880 C   0  0  0  0  0  3  0  0  0  0  0  0
  103.1710  106.3140  103.9480 C   0  0  0  0  0  0  0  0  0  0  0  0
  102.3620  107.7710  105.7310 C   0  0  0  0  0  0  0  0  0  0  0  0
  105.8790  108.8700  104.7350 C   0  0  0  0  0  1  0  0  0  0  0  0
  102.9990  105.1740  102.9780 C   0  0  0  0  0  1  0  0  0  0  0  0
  101.3110  108.2020  106.7260 C   0  0  0  0  0  1  0  0  0  0  0  0
   94.6750  101.8520  104.3070 C   0  0  0  0  0  0  0  0  0  0  0  0
   94.8910  100.5420  104.7790 C   0  0  0  0  0  3  0  0  0  0  0  0
   94.3360  101.9990  102.9520 C   0  0  0  0  0  3  0  0  0  0  0  0
   94.7050   99.4290  103.9480 C   0  0  0  0  0  3  0  0  0  0  0  0
   94.1590  100.8890  102.1200 C   0  0  0  0  0  3  0  0  0  0  0  0
   94.3270   99.5880  102.6100 C   0  0  0  0  0  0  0  0  0  0  0  0
   94.1450   98.4330  101.7290 C   0  0  0  0  0  0  0  0  0  0  0  0
   95.2090   97.5700  101.4460 C   0  0  0  0  0  3  0  0  0  0  0  0
   92.9000   98.1600  101.1540 C   0  0  0  0  0  3  0  0  0  0  0  0
   95.0290   96.4530  100.6190 C   0  0  0  0  0  3  0  0  0  0  0  0
   92.7220   97.0510  100.3220 C   0  0  0  0  0  3  0  0  0  0  0  0
   93.7820   96.1660  100.0420 C   0  0  0  0  0  0  0  0  0  0  0  0
   93.5550   94.9570   99.1160 C   0  0  0  0  0  0  0  0  0  0  0  0
   92.6670   93.8550   99.7380 C   0  0  0  0  0  1  0  0  0  0  0  0
   94.9170   94.3130   98.7860 C   0  0  0  0  0  1  0  0  0  0  0  0
   92.8670   95.4060   97.8080 C   0  0  0  0  0  1  0  0  0  0  0  0
  100.8170  101.6410  107.7670 C   0  0  0  0  0  0  0  0  0  0  0  0
  101.5670  102.4840  108.2510 O   0  0  0  0  0  0  0  0  0  0  0  0
  101.2600  100.3850  107.3940 N   0  0  0  0  0  0  0  0  0  0  0  0
  100.6880   99.8520  106.7450 H   0  0  0  0  0  0  0  0  0  0  0  0
  102.6640  100.0220  107.5000 C   0  0  0  0  0  2  0  0  0  0  0  0
  103.0530   99.5980  108.9060 C   0  0  0  0  0  2  0  0  0  0  0  0
  103.5680   97.8950  108.9080 S   0  0  0  0  0  0  0  0  0  0  0  0
  102.5020   97.0680  109.4240 O   0  0  0  0  0  1  0  0  0  0  0  0
  104.2550   97.5860  107.6730 O   0  0  0  0  0  1  0  0  0  0  0  0
  104.6630   97.9860  110.0890 O   0  0  0  0  0  0  0  0  0  0  0  0
  104.4240   97.3290  110.7760 H   0  0  0  0  0  0  0  0  0  0  0  0
  1  6  1  0  0  0  0
  2  3  1  0  0  0  0
  2  1  2  0  0  0  0
  3  4  2  0  0  0  0
  4 44  1  0  0  0  0
  4  5  1  0  0  0  0
  6  5  2  0  0  0  0
  7  1  1  0  0  0  0
  8  7  1  1  0  0  0
  9 10  1  0  0  0  0
  9  8  1  0  0  0  0
 10 12  1  0  0  0  0
 11  9  2  0  0  0  0
 13 10  1  0  0  0  0
 13 18  1  0  0  0  0
 14 16  1  0  0  0  0
 15 17  1  0  0  0  0
 15 14  2  0  0  0  0
 16 18  2  0  0  0  0
 17 13  2  0  0  0  0
 19 14  1  0  0  0  0
 19 24  1  0  0  0  0
 20 22  1  0  0  0  0
 21 23  1  0  0  0  0
 21 20  2  0  0  0  0
 22 24  2  0  0  0  0
 23 19  2  0  0  0  0
 24 27  1  0  0  0  0
 25 20  1  0  0  0  0
 26 23  1  0  0  0  0
 28 29  1  0  0  0  0
 28  8  1  0  0  0  0
 30 28  2  0  0  0  0
 31 29  2  0  0  0  0
 32 33  2  0  0  0  0
 32 30  1  0  0  0  0
 33 31  1  0  0  0  0
 34 33  1  0  0  0  0
 35 34  1  0  0  0  0
 36 34  2  0  0  0  0
 37 35  2  0  0  0  0
 38 36  1  0  0  0  0
 39 38  2  0  0  0  0
 39 37  1  0  0  0  0
 40 41  1  0  0  0  0
 40 39  1  0  0  0  0
 42 40  1  0  0  0  0
 43 40  1  0  0  0  0
 44 45  2  0  0  0  0
 46 48  1  0  0  0  0
 46 44  1  0  0  0  0
 47 46  1  0  0  0  0
 48 49  1  0  0  0  0
 49 50  1  0  0  0  0
 50 51  1  0  0  0  0
 50 53  1  0  0  0  0
 52 50  1  0  0  0  0
 53 54  1  0  0  0  0
M  END
>  <minimizedAffinity>
2.10541487

>  <CNNscore>
0.564947307

>  <CNNaffinity>
8.01374912

$$$$
