
 OpenBabel08012601253D

 40 43  0  0  1  0  0  0  0  0999 V2000
  101.7360  102.1300  104.8450 C   0  0  0  0  0  0  0  0  0  0  0  0
  101.5050  101.2450  104.0360 O   0  0  0  0  0  0  0  0  0  0  0  0
  101.1140  103.4270  104.8550 C   0  0  0  0  0  0  0  0  0  0  0  0
   99.7910  105.1900  105.2500 C   0  0  0  0  0  0  0  0  0  0  0  0
  100.6770  105.5980  104.3660 N   0  0  0  0  0  0  0  0  0  0  0  0
  100.0310  103.8730  105.6000 N   0  0  0  0  0  0  0  0  0  0  0  0
  101.4970  104.5320  104.1180 C   0  0  0  0  0  0  0  0  0  0  0  0
  102.7730  104.6510  102.9960 Cl  0  0  0  0  0  0  0  0  0  0  0  0
   98.7070  106.0590  105.8110 C   0  0  0  0  0  2  0  0  0  0  0  0
   98.3170  105.6860  107.2450 C   0  0  0  0  0  2  0  0  0  0  0  0
   99.0140  106.4790  108.3550 C   0  0  0  0  0  2  0  0  0  0  0  0
   99.4760  105.6200  109.5210 C   0  0  0  0  0  1  0  0  0  0  0  0
   99.3770  103.1580  106.6930 C   0  0  0  0  0  2  0  0  0  0  0  0
   98.2050  102.3170  106.2500 C   0  0  0  0  0  0  0  0  0  0  0  0
   98.3560  101.2300  105.3790 C   0  0  0  0  0  3  0  0  0  0  0  0
   96.9260  102.5930  106.7560 C   0  0  0  0  0  3  0  0  0  0  0  0
   97.2540  100.4520  105.0100 C   0  0  0  0  0  3  0  0  0  0  0  0
   95.8250  101.8180  106.3820 C   0  0  0  0  0  3  0  0  0  0  0  0
   95.9740  100.7340  105.5080 C   0  0  0  0  0  0  0  0  0  0  0  0
   94.8130   99.9200  105.1070 C   0  0  0  0  0  0  0  0  0  0  0  0
   94.1420   99.1910  106.1120 C   0  0  0  0  0  3  0  0  0  0  0  0
   94.3610   99.8010  103.7710 C   0  0  0  0  0  0  0  0  0  0  0  0
   93.0620   98.3590  105.8140 C   0  0  0  0  0  3  0  0  0  0  0  0
   93.2780   98.9440  103.4880 C   0  0  0  0  0  3  0  0  0  0  0  0
   92.6320   98.2310  104.5000 C   0  0  0  0  0  3  0  0  0  0  0  0
   94.9630  100.5380  102.6610 C   0  0  0  0  0  0  0  0  0  0  0  0
   94.7670  101.8820  102.4330 N   0  0  0  0  0  0  0  0  0  0  0  0
   95.7410   99.9730  101.7150 N   0  0  0  0  0  2  0  0  0  0  0  0
   95.4500  102.1950  101.3410 N   0  0  0  0  0  2  0  0  0  0  0  0
   96.0010  101.0420  100.9510 N   0  0  0  0  0  0  0  0  0  0  0  0
   96.5830  100.9840  100.1190 H   0  0  0  0  0  0  0  0  0  0  0  0
  102.6040  102.0290  105.8840 O   0  0  0  0  0  0  0  0  0  0  0  0
  102.2200  101.2050  107.0060 C   0  0  2  0  0  3  0  0  0  0  0  0
  102.3600  101.9680  108.3220 C   0  0  0  0  0  1  0  0  0  0  0  0
  102.9420   99.9720  107.0120 O   0  0  0  0  0  0  0  0  0  0  0  0
  102.2050   98.8680  106.7560 C   0  0  0  0  0  0  0  0  0  0  0  0
  101.3800   98.7450  105.8640 O   0  0  0  0  0  0  0  0  0  0  0  0
  102.5460   97.9170  107.6590 O   0  0  0  0  0  0  0  0  0  0  0  0
  102.8400   98.4190  108.9660 C   0  0  0  0  0  2  0  0  0  0  0  0
  104.2180   97.9250  109.3630 C   0  0  0  0  0  1  0  0  0  0  0  0
  1  3  1  0  0  0  0
  1 32  1  0  0  0  0
  2  1  2  0  0  0  0
  3  6  1  0  0  0  0
  4  6  1  0  0  0  0
  4  9  1  0  0  0  0
  5  4  2  0  0  0  0
  6 13  1  0  0  0  0
  7  5  1  0  0  0  0
  7  3  2  0  0  0  0
  8  7  1  0  0  0  0
  9 10  1  0  0  0  0
 10 11  1  0  0  0  0
 11 12  1  0  0  0  0
 14 13  1  0  0  0  0
 14 16  1  0  0  0  0
 15 14  2  0  0  0  0
 17 15  1  0  0  0  0
 17 19  2  0  0  0  0
 18 16  2  0  0  0  0
 19 18  1  0  0  0  0
 20 19  1  0  0  0  0
 20 21  1  0  0  0  0
 22 20  2  0  0  0  0
 23 21  2  0  0  0  0
 24 22  1  0  0  0  0
 24 25  2  0  0  0  0
 25 23  1  0  0  0  0
 26 22  1  0  0  0  0
 27 26  2  0  0  0  0
 28 26  1  0  0  0  0
 29 27  1  0  0  0  0
 30 29  1  0  0  0  0
 30 28  1  0  0  0  0
 31 30  1  0  0  0  0
 32 33  1  0  0  0  0
 33 35  1  0  0  0  0
 33 34  1  1  0  0  0
 36 35  1  0  0  0  0
 36 38  1  0  0  0  0
 37 36  2  0  0  0  0
 38 39  1  0  0  0  0
 39 40  1  0  0  0  0
M  END
>  <minimizedAffinity>
-8.79060364

>  <CNNscore>
0.885076642

>  <CNNaffinity>
7.53474569

$$$$
