
 OpenBabel07302621403D

 39 42  0  0  1  0  0  0  0  0999 V2000
   92.1750  100.3360  102.8500 N   0  0  0  0  0  0  0  0  0  0  0  0
   93.3910  100.0190  102.2920 C   0  0  0  0  0  0  0  0  0  0  0  0
   93.4510   99.2600  101.3250 O   0  0  0  0  0  0  0  0  0  0  0  0
   92.1230  100.8360  103.7290 H   0  0  0  0  0  0  0  0  0  0  0  0
   90.9410   99.7680  102.3540 C   0  0  0  0  0  0  0  0  0  0  0  0
   90.1520   99.1780  103.5220 C   0  0  0  0  0  0  0  0  0  0  0  0
   88.9410   99.3480  103.6520 O   0  0  0  0  0  0  0  0  0  0  0  0
   90.9220   98.4790  104.4270 N   0  0  0  0  0  0  0  0  0  0  0  0
   91.8580   98.2040  104.1490 H   0  0  0  0  0  0  0  0  0  0  0  0
   90.2970   97.7090  105.5000 C   0  0  0  0  0  0  0  0  0  0  0  0
   90.8040   98.0890  106.8900 C   0  0  0  0  0  0  0  0  0  0  0  0
   91.1400   99.4010  106.9480 F   0  0  0  0  0  0  0  0  0  0  0  0
   89.8030   97.9060  107.7950 F   0  0  0  0  0  0  0  0  0  0  0  0
   94.5500  100.6230  102.9360 C   0  0  0  0  0  0  0  0  0  0  0  0
   94.5210  102.3210  103.2610 S   0  0  0  0  0  0  0  0  0  0  0  0
   95.7400  100.0930  103.3800 C   0  0  0  0  0  0  0  0  0  0  0  0
   96.0930  102.3340  103.9550 C   0  0  0  0  0  0  0  0  0  0  0  0
   96.6060  101.0610  103.9570 C   0  0  0  0  0  0  0  0  0  0  0  0
   96.3600   98.7370  103.4300 C   0  0  0  0  0  0  0  0  0  0  0  0
   97.8760  100.4430  104.4280 C   0  0  0  0  0  0  0  0  0  0  0  0
   97.5280   98.9300  104.4360 C   0  0  0  0  0  0  0  0  0  0  0  0
   96.6870  103.5540  104.4430 C   0  0  0  0  0  0  0  0  0  0  0  0
   96.0650  104.6890  104.3940 N   0  0  0  0  0  0  0  0  0  0  0  0
   98.0660  103.6410  104.9980 C   0  0  0  0  0  0  0  0  0  0  0  0
   96.9190  105.6670  104.9500 O   0  0  0  0  0  0  0  0  0  0  0  0
   97.9710  104.9990  105.6830 C   0  0  2  0  0  0  0  0  0  0  0  0
   99.2770  105.7950  105.5580 C   0  0  0  0  0  0  0  0  0  0  0  0
   99.3630  107.1220  106.0260 C   0  0  0  0  0  0  0  0  0  0  0  0
  100.4170  105.2360  104.9500 C   0  0  0  0  0  0  0  0  0  0  0  0
  100.5510  107.8510  105.9020 C   0  0  0  0  0  0  0  0  0  0  0  0
  101.6030  105.9710  104.8300 C   0  0  0  0  0  0  0  0  0  0  0  0
  101.6700  107.2760  105.3080 C   0  0  0  0  0  0  0  0  0  0  0  0
  100.6070  109.4660  106.4970 Cl  0  0  0  0  0  0  0  0  0  0  0  0
  102.9730  105.2410  104.0840 Cl  0  0  0  0  0  0  0  0  0  0  0  0
  102.8080  107.9790  105.1930 F   0  0  0  0  0  0  0  0  0  0  0  0
   97.5500  104.8560  107.1600 C   0  0  0  0  0  0  0  0  0  0  0  0
   98.6320  104.6310  107.9500 F   0  0  0  0  0  0  0  0  0  0  0  0
   96.9390  105.9680  107.6280 F   0  0  0  0  0  0  0  0  0  0  0  0
   96.7110  103.8130  107.3580 F   0  0  0  0  0  0  0  0  0  0  0  0
  1  4  1  0  0  0  0
  2  1  1  0  0  0  0
  2 14  1  0  0  0  0
  3  2  2  0  0  0  0
  5  1  1  0  0  0  0
  5  6  1  0  0  0  0
  6  7  2  0  0  0  0
  6  8  1  0  0  0  0
  8 10  1  0  0  0  0
  9  8  1  0  0  0  0
 10 11  1  0  0  0  0
 11 12  1  0  0  0  0
 11 13  1  0  0  0  0
 14 15  1  0  0  0  0
 14 16  2  0  0  0  0
 15 17  1  0  0  0  0
 16 19  1  0  0  0  0
 16 18  1  0  0  0  0
 17 18  2  0  0  0  0
 17 22  1  0  0  0  0
 18 20  1  0  0  0  0
 19 21  1  0  0  0  0
 20 21  1  0  0  0  0
 22 24  1  0  0  0  0
 23 22  2  0  0  0  0
 23 25  1  0  0  0  0
 24 26  1  0  0  0  0
 25 26  1  0  0  0  0
 26 36  1  1  0  0  0
 27 26  1  0  0  0  0
 27 28  1  0  0  0  0
 29 27  2  0  0  0  0
 30 28  2  0  0  0  0
 30 33  1  0  0  0  0
 31 29  1  0  0  0  0
 31 32  2  0  0  0  0
 32 30  1  0  0  0  0
 34 31  1  0  0  0  0
 35 32  1  0  0  0  0
 36 39  1  0  0  0  0
 36 38  1  0  0  0  0
 36 37  1  0  0  0  0
M  END
>  <minimizedAffinity>
-8.68833828

>  <CNNscore>
0.851373136

>  <CNNaffinity>
7.80832291

$$$$
