
 OpenBabel07312623543D

 31 32  0  0  0  0  0  0  0  0999 V2000
   97.0380  103.1160  104.5760 C   0  0  0  0  0  0  0  0  0  0  0  0
   96.2250  103.9400  104.1730 O   0  0  0  0  0  0  0  0  0  0  0  0
   98.2530  103.3590  105.1890 N   0  0  0  0  0  0  0  0  0  0  0  0
   98.8620  102.5500  105.2940 H   0  0  0  0  0  0  0  0  0  0  0  0
   96.7540  101.6830  104.2820 C   0  0  0  0  0  0  0  0  0  0  0  0
   97.7270  100.6810  104.4580 C   0  0  0  0  0  0  0  0  0  0  0  0
   97.3780   99.3910  104.0250 C   0  0  0  0  0  0  0  0  0  0  0  0
   96.1030   99.0820  103.5120 C   0  0  0  0  0  3  0  0  0  0  0  0
   95.4540  101.3650  103.8120 C   0  0  0  0  0  0  0  0  0  0  0  0
   95.0980  100.0600  103.4060 C   0  0  0  0  0  0  0  0  0  0  0  0
   99.0620  100.9660  105.0970 C   0  0  0  0  0  1  0  0  0  0  0  0
   98.3460   98.2980  104.0750 N   0  0  0  0  0  0  0  0  0  0  0  0
   98.3110   97.4700  103.1550 O   0  0  0  0  0  0  0  0  0  0  0  0
   99.1200   98.2710  105.0400 O   0  0  0  0  0  0  0  0  0  0  0  0
   94.4970  102.3480  103.7400 O   0  0  0  0  0  0  0  0  0  0  0  0
   94.7450  103.0830  104.3440 H   0  0  0  0  0  0  0  0  0  0  0  0
   93.6900   99.7080  102.8720 C   0  0  0  0  0  0  0  0  0  0  0  0
   92.7780   99.2310  104.0250 C   0  0  0  0  0  1  0  0  0  0  0  0
   93.6930   98.5630  101.8250 C   0  0  0  0  0  1  0  0  0  0  0  0
   93.0560  100.9280  102.1690 C   0  0  0  0  0  1  0  0  0  0  0  0
   98.7820  104.6050  105.6100 C   0  0  0  0  0  0  0  0  0  0  0  0
   99.4270  105.4700  104.7150 C   0  0  0  0  0  3  0  0  0  0  0  0
   98.6450  105.0040  106.9570 C   0  0  0  0  0  0  0  0  0  0  0  0
   99.9400  106.7020  105.1360 C   0  0  0  0  0  3  0  0  0  0  0  0
   99.1700  106.2500  107.3690 C   0  0  0  0  0  3  0  0  0  0  0  0
   99.8110  107.0870  106.4620 C   0  0  0  0  0  0  0  0  0  0  0  0
  100.5010  108.7480  107.0360 Br  0  0  0  0  0  0  0  0  0  0  0  0
   97.9720  104.1700  108.0170 C   0  0  0  0  0  0  0  0  0  0  0  0
   98.2180  104.6270  109.2750 F   0  0  0  0  0  0  0  0  0  0  0  0
   98.3560  102.8600  108.0200 F   0  0  0  0  0  0  0  0  0  0  0  0
   96.6170  104.1520  107.8840 F   0  0  0  0  0  0  0  0  0  0  0  0
  1  3  1  0  0  0  0
  2  1  2  0  0  0  0
  3  4  1  0  0  0  0
  3 21  1  0  0  0  0
  5  6  1  0  0  0  0
  5  1  1  0  0  0  0
  6 11  1  0  0  0  0
  7 12  1  0  0  0  0
  7  6  2  0  0  0  0
  8  7  1  0  0  0  0
  9  5  2  0  0  0  0
 10  8  2  0  0  0  0
 10  9  1  0  0  0  0
 12 14  2  0  0  0  0
 13 12  2  0  0  0  0
 15  9  1  0  0  0  0
 15 16  1  0  0  0  0
 17 10  1  0  0  0  0
 17 18  1  0  0  0  0
 19 17  1  0  0  0  0
 20 17  1  0  0  0  0
 21 23  1  0  0  0  0
 22 24  1  0  0  0  0
 22 21  2  0  0  0  0
 23 25  2  0  0  0  0
 23 28  1  0  0  0  0
 24 26  2  0  0  0  0
 26 27  1  0  0  0  0
 26 25  1  0  0  0  0
 28 30  1  0  0  0  0
 28 29  1  0  0  0  0
 31 28  1  0  0  0  0
M  END
>  <minimizedAffinity>
-7.75788069

>  <CNNscore>
0.734030366

>  <CNNaffinity>
7.12631416

$$$$
