
 OpenBabel08012602003D

 40 43  0  0  1  0  0  0  0  0999 V2000
   98.9080  105.7170  106.1070 N   0  0  0  0  0  0  0  0  0  0  0  0
   99.0790  106.9430  105.5180 C   0  0  0  0  0  3  0  0  0  0  0  0
  100.1410  106.9700  104.7380 N   0  0  0  0  0  0  0  0  0  0  0  0
  100.6440  105.6870  104.7780 C   0  0  0  0  0  0  0  0  0  0  0  0
  101.7450  105.0760  104.1530 C   0  0  2  0  0  3  0  0  0  0  0  0
  102.0040  103.7770  104.4240 N   0  0  0  0  0  0  0  0  0  0  0  0
  101.1700  103.1240  105.2630 C   0  0  0  0  0  0  0  0  0  0  0  0
  101.4390  101.7360  105.4430 C   0  0  0  0  0  0  0  0  0  0  0  0
  100.0980  103.6010  105.9290 N   0  0  0  0  0  2  0  0  0  0  0  0
   99.8930  104.8940  105.6290 C   0  0  0  0  0  0  0  0  0  0  0  0
   97.9210  105.3260  107.0980 C   0  0  2  0  0  3  0  0  0  0  0  0
   96.7080  103.3400  106.8910 C   0  0  1  0  0  3  0  0  0  0  0  0
   97.9710  103.8950  107.2860 O   0  0  0  0  0  0  0  0  0  0  0  0
   96.0290  104.3870  106.0180 C   0  0  2  0  0  3  0  0  0  0  0  0
   96.4890  105.6750  106.6800 C   0  0  1  0  0  3  0  0  0  0  0  0
   96.8500  102.0310  106.1060 C   0  0  0  0  0  0  0  0  0  0  0  0
   95.6730  101.3170  105.9970 N   0  0  0  0  0  0  0  0  0  0  0  0
   97.9110  101.6550  105.6140 O   0  0  0  0  0  0  0  0  0  0  0  0
   94.8070  101.7540  106.2990 H   0  0  0  0  0  0  0  0  0  0  0  0
   95.6050  100.0450  105.3080 C   0  0  0  0  0  2  0  0  0  0  0  0
   94.6630   99.0740  106.0010 C   0  0  0  0  0  1  0  0  0  0  0  0
   94.6030  104.2840  106.0240 O   0  0  0  0  0  0  0  0  0  0  0  0
   94.2780  104.6840  105.1920 H   0  0  0  0  0  0  0  0  0  0  0  0
   95.6690  105.9350  107.8320 O   0  0  0  0  0  0  0  0  0  0  0  0
   94.7570  105.6890  107.5800 H   0  0  0  0  0  0  0  0  0  0  0  0
  102.5870  105.7460  103.2790 N   0  0  0  0  0  0  0  0  0  0  0  0
  103.5070  105.3260  103.2210 H   0  0  0  0  0  0  0  0  0  0  0  0
  102.5200  106.7580  103.3290 H   0  0  0  0  0  0  0  0  0  0  0  0
  101.6320  100.5530  105.5560 C   0  0  0  0  0  0  0  0  0  0  0  0
  101.9110   99.1140  105.6550 C   0  0  0  0  0  2  0  0  0  0  0  0
  102.6800   98.7140  106.9250 C   0  0  1  0  0  3  0  0  0  0  0  0
  103.3940   99.9060  107.5930 C   0  0  0  0  0  2  0  0  0  0  0  0
  101.8120   97.9450  107.9280 C   0  0  0  0  0  2  0  0  0  0  0  0
  103.5470   99.7660  109.1110 C   0  0  0  0  0  2  0  0  0  0  0  0
  102.6520   97.3760  109.0780 C   0  0  0  0  0  2  0  0  0  0  0  0
  103.7540   98.3250  109.5760 C   0  0  1  0  0  3  0  0  0  0  0  0
  105.1460   97.8460  109.1840 C   0  0  0  0  0  0  0  0  0  0  0  0
  106.1940   98.2590  109.6610 O   0  0  0  0  0  0  0  0  0  0  0  0
  105.0520   96.8720  108.2350 O   0  0  0  0  0  0  0  0  0  0  0  0
  106.0980   96.9030  107.2610 C   0  0  0  0  0  1  0  0  0  0  0  0
  2  1  1  0  0  0  0
  3  4  1  0  0  0  0
  3  2  2  0  0  0  0
  4 10  2  0  0  0  0
  5 26  1  1  0  0  0
  5  6  1  0  0  0  0
  5  4  1  0  0  0  0
  6  7  2  0  0  0  0
  7  8  1  0  0  0  0
  7  9  1  0  0  0  0
  8 29  3  0  0  0  0
 10  9  1  0  0  0  0
 10  1  1  0  0  0  0
 11  1  1  6  0  0  0
 11 13  1  0  0  0  0
 12 16  1  6  0  0  0
 12 13  1  0  0  0  0
 14 22  1  1  0  0  0
 14 15  1  0  0  0  0
 14 12  1  0  0  0  0
 15 11  1  0  0  0  0
 15 24  1  1  0  0  0
 17 16  1  0  0  0  0
 17 19  1  0  0  0  0
 18 16  2  0  0  0  0
 20 17  1  0  0  0  0
 20 21  1  0  0  0  0
 23 22  1  0  0  0  0
 25 24  1  0  0  0  0
 26 28  1  0  0  0  0
 27 26  1  0  0  0  0
 29 30  1  0  0  0  0
 31 30  1  6  0  0  0
 31 32  1  0  0  0  0
 31 33  1  0  0  0  0
 32 34  1  0  0  0  0
 33 35  1  0  0  0  0
 34 36  1  0  0  0  0
 35 36  1  0  0  0  0
 36 37  1  6  0  0  0
 37 38  2  0  0  0  0
 39 37  1  0  0  0  0
 40 39  1  0  0  0  0
M  END
>  <minimizedAffinity>
-8.04700565

>  <CNNscore>
0.545966923

>  <CNNaffinity>
7.15491915

$$$$
