
 OpenBabel08012601583D

 51 56  0  0  1  0  0  0  0  0999 V2000
   93.3200   99.8590  102.7860 N   0  0  0  0  0  0  0  0  0  0  0  0
   94.5620   99.9910  103.3730 C   0  0  0  0  0  0  0  0  0  0  0  0
   94.5530   99.2190  104.5170 C   0  0  0  0  0  0  0  0  0  0  0  0
   93.2330   98.7610  104.7390 C   0  0  0  0  0  0  0  0  0  0  0  0
   92.6190   97.9980  105.7500 C   0  0  0  0  0  3  0  0  0  0  0  0
   91.2550   97.7010  105.6570 C   0  0  0  0  0  3  0  0  0  0  0  0
   90.4950   98.1370  104.5740 C   0  0  0  0  0  0  0  0  0  0  0  0
   91.0930   98.8760  103.5460 C   0  0  0  0  0  3  0  0  0  0  0  0
   92.4650   99.1880  103.6510 C   0  0  0  0  0  0  0  0  0  0  0  0
   95.8080   98.9670  105.2620 C   0  0  0  0  0  2  0  0  0  0  0  0
   96.9840   99.0740  104.2690 C   0  0  0  0  0  2  0  0  0  0  0  0
   97.0380  100.3060  103.4560 N   0  0  2  0  0  0  0  0  0  0  0  0
   97.8290  101.3750  104.0590 C   0  0  0  0  0  2  0  0  0  0  0  0
   97.0470  102.2820  105.0240 C   0  0  1  0  0  3  0  0  0  0  0  0
   97.9460  103.4210  105.5070 C   0  0  0  0  0  2  0  0  0  0  0  0
   97.2360  104.4350  106.4140 C   0  0  2  0  0  3  0  0  0  0  0  0
   95.7560  104.6980  106.0480 C   0  0  1  0  0  3  0  0  0  0  0  0
   95.4200  104.2700  104.6080 C   0  0  2  0  0  3  0  0  0  0  0  0
   95.7220  102.7670  104.4010 C   0  0  1  0  0  3  0  0  0  0  0  0
   95.5420  102.2740  102.9530 C   0  0  0  0  0  2  0  0  0  0  0  0
   95.7590  100.7410  102.8330 C   0  0  2  0  0  3  0  0  0  0  0  0
   92.9740  100.2760  101.4330 C   0  0  0  0  0  2  0  0  0  0  0  0
   91.7120  101.1560  101.3870 C   0  0  0  0  0  2  0  0  0  0  0  0
   91.0550  101.1410  100.0600 N   0  0  0  0  0  0  0  0  0  0  0  0
   90.3160  102.3900   99.8090 C   0  0  0  0  0  2  0  0  0  0  0  0
   89.5620  102.8660  101.0490 C   0  0  0  0  0  1  0  0  0  0  0  0
   90.2000   99.9500   99.9220 C   0  0  0  0  0  2  0  0  0  0  0  0
   89.1130   99.8780  100.9910 C   0  0  0  0  0  1  0  0  0  0  0  0
   89.1770   97.7640  104.6240 O   0  0  0  0  0  0  0  0  0  0  0  0
   88.9040   96.4350  105.0450 C   0  0  0  0  0  1  0  0  0  0  0  0
   96.0740  105.2380  103.6360 C   0  0  0  0  0  0  0  0  0  0  0  0
   97.0920  105.8850  103.8350 O   0  0  0  0  0  0  0  0  0  0  0  0
   95.3440  105.2910  102.4830 O   0  0  0  0  0  0  0  0  0  0  0  0
   95.6340  106.4200  101.6580 C   0  0  0  0  0  1  0  0  0  0  0  0
   94.9500  103.9240  106.9600 O   0  0  0  0  0  0  0  0  0  0  0  0
   95.6630  103.5020  108.1170 C   0  0  0  0  0  1  0  0  0  0  0  0
   98.0100  105.6530  106.2970 O   0  0  0  0  0  0  0  0  0  0  0  0
   99.1620  105.7000  107.0020 C   0  0  0  0  0  0  0  0  0  0  0  0
   99.4250  106.4700  107.9080 O   0  0  0  0  0  0  0  0  0  0  0  0
  100.0800  104.6280  106.5410 C   0  0  0  0  0  0  0  0  0  0  0  0
  100.7650  104.7140  105.3200 C   0  0  0  0  0  3  0  0  0  0  0  0
  100.2430  103.5100  107.3720 C   0  0  0  0  0  3  0  0  0  0  0  0
  101.6210  103.6850  104.9260 C   0  0  0  0  0  0  0  0  0  0  0  0
  101.0840  102.4670  106.9850 C   0  0  0  0  0  0  0  0  0  0  0  0
  101.7930  102.5780  105.7770 C   0  0  0  0  0  0  0  0  0  0  0  0
  102.3440  103.6770  103.7610 O   0  0  0  0  0  0  0  0  0  0  0  0
  102.9990  104.8840  103.3930 C   0  0  0  0  0  1  0  0  0  0  0  0
  101.2950  101.3320  107.7240 O   0  0  0  0  0  0  0  0  0  0  0  0
  102.4340  101.3310  108.5780 C   0  0  0  0  0  1  0  0  0  0  0  0
  102.6010  101.5390  105.3700 O   0  0  0  0  0  0  0  0  0  0  0  0
  101.8070  100.3810  105.1190 C   0  0  0  0  0  1  0  0  0  0  0  0
  1  2  1  0  0  0  0
  1  9  1  0  0  0  0
  2  3  2  0  0  0  0
  3  4  1  0  0  0  0
  3 10  1  0  0  0  0
  4  5  1  0  0  0  0
  6  5  2  0  0  0  0
  7 29  1  0  0  0  0
  7  6  1  0  0  0  0
  8  9  1  0  0  0  0
  8  7  2  0  0  0  0
  9  4  2  0  0  0  0
 11 10  1  0  0  0  0
 12 13  1  1  0  0  0
 12 11  1  0  0  0  0
 14 13  1  6  0  0  0
 14 15  1  0  0  0  0
 15 16  1  0  0  0  0
 16 37  1  6  0  0  0
 17 16  1  0  0  0  0
 17 35  1  1  0  0  0
 18 31  1  6  0  0  0
 18 17  1  0  0  0  0
 19 20  1  6  0  0  0
 19 18  1  0  0  0  0
 19 14  1  0  0  0  0
 21 20  1  1  0  0  0
 21  2  1  0  0  0  0
 21 12  1  0  0  0  0
 22  1  1  0  0  0  0
 23 22  1  0  0  0  0
 24 23  1  0  0  0  0
 25 24  1  0  0  0  0
 25 26  1  0  0  0  0
 27 24  1  0  0  0  0
 27 28  1  0  0  0  0
 29 30  1  0  0  0  0
 31 32  2  0  0  0  0
 33 31  1  0  0  0  0
 34 33  1  0  0  0  0
 35 36  1  0  0  0  0
 37 38  1  0  0  0  0
 38 39  2  0  0  0  0
 40 38  1  0  0  0  0
 40 42  1  0  0  0  0
 41 40  2  0  0  0  0
 43 41  1  0  0  0  0
 43 45  2  0  0  0  0
 44 42  2  0  0  0  0
 44 48  1  0  0  0  0
 45 44  1  0  0  0  0
 46 43  1  0  0  0  0
 47 46  1  0  0  0  0
 48 49  1  0  0  0  0
 50 45  1  0  0  0  0
 51 50  1  0  0  0  0
M  END
>  <minimizedAffinity>
-7.15113688

>  <CNNscore>
0.765719116

>  <CNNaffinity>
8.18429184

$$$$
