
 OpenBabel07312618033D

 48 53  0  0  0  0  0  0  0  0999 V2000
   97.4360   99.7760  103.3400 C   0  0  0  0  0  0  0  0  0  0  0  0
   96.6280   98.7520  102.8760 C   0  0  0  0  0  3  0  0  0  0  0  0
   95.4110   99.2010  102.2960 C   0  0  0  0  0  0  0  0  0  0  0  0
   94.4690   98.3890  101.7480 N   0  0  0  0  0  0  0  0  0  0  0  0
   93.4010   99.0090  101.2200 C   0  0  0  0  0  3  0  0  0  0  0  0
   93.1970  100.3770  101.2090 C   0  0  0  0  0  3  0  0  0  0  0  0
   94.1450  101.2110  101.8050 C   0  0  0  0  0  0  0  0  0  0  0  0
   95.2900  100.5870  102.3400 C   0  0  0  0  0  0  0  0  0  0  0  0
   96.6700  101.2880  103.0890 S   0  0  0  0  0  0  0  0  0  0  0  0
   98.7700   99.6530  103.9540 C   0  0  0  0  0  0  0  0  0  0  0  0
  101.1740   99.5370  105.3300 C   0  0  0  0  0  0  0  0  0  0  0  0
  101.0120   98.8110  104.1510 C   0  0  0  0  0  3  0  0  0  0  0  0
  100.0970  100.3080  105.7430 C   0  0  0  0  0  3  0  0  0  0  0  0
   99.8010   98.8630  103.4560 C   0  0  0  0  0  3  0  0  0  0  0  0
   98.9120  100.3770  105.0920 N   0  0  0  0  0  0  0  0  0  0  0  0
  102.4610   99.5130  106.1130 C   0  0  0  0  0  2  0  0  0  0  0  0
  102.5530   98.3130  106.9470 N   0  0  0  0  0  0  0  0  0  0  0  0
  101.6620   97.8190  106.9030 H   0  0  0  0  0  0  0  0  0  0  0  0
  102.8380   98.6210  108.3580 C   0  0  0  0  0  2  0  0  0  0  0  0
  104.1380   98.0130  108.9170 C   0  0  0  0  0  2  0  0  0  0  0  0
  105.2660   98.2520  108.0720 O   0  0  0  0  0  0  0  0  0  0  0  0
  105.7490   97.0730  107.4390 C   0  0  0  0  0  1  0  0  0  0  0  0
   94.0520  102.5920  101.8410 O   0  0  0  0  0  0  0  0  0  0  0  0
   94.8180  103.2610  102.7630 C   0  0  0  0  0  0  0  0  0  0  0  0
   94.7410  102.8590  104.0940 C   0  0  0  0  0  3  0  0  0  0  0  0
   95.6290  104.3390  102.4150 C   0  0  0  0  0  0  0  0  0  0  0  0
   95.5350  103.4900  105.0610 C   0  0  0  0  0  3  0  0  0  0  0  0
   96.4240  104.9650  103.3720 C   0  0  0  0  0  3  0  0  0  0  0  0
   96.4010  104.5310  104.7010 C   0  0  0  0  0  0  0  0  0  0  0  0
   95.6780  104.7760  101.1480 F   0  0  0  0  0  0  0  0  0  0  0  0
   97.2960  105.1480  105.5970 N   0  0  0  0  0  0  0  0  0  0  0  0
   97.4200  104.9220  106.9520 C   0  0  0  0  0  0  0  0  0  0  0  0
   96.6870  104.2700  107.6820 O   0  0  0  0  0  0  0  0  0  0  0  0
   97.9370  105.8290  105.2030 H   0  0  0  0  0  0  0  0  0  0  0  0
   98.6250  105.5860  107.5480 C   0  0  0  0  0  0  0  0  0  0  0  0
   99.0330  105.1330  108.9550 C   0  0  0  0  0  2  0  0  0  0  0  0
   98.4250  106.4860  108.7710 C   0  0  0  0  0  2  0  0  0  0  0  0
   99.7230  105.9240  106.5860 C   0  0  0  0  0  0  0  0  0  0  0  0
  100.0900  107.0890  106.5170 O   0  0  0  0  0  0  0  0  0  0  0  0
  100.2020  104.8330  105.8940 N   0  0  0  0  0  0  0  0  0  0  0  0
   99.8030  103.9350  106.1470 H   0  0  0  0  0  0  0  0  0  0  0  0
  101.1860  104.8160  104.8880 C   0  0  0  0  0  0  0  0  0  0  0  0
  101.8070  105.9650  104.3900 C   0  0  0  0  0  3  0  0  0  0  0  0
  101.5400  103.5630  104.3610 C   0  0  0  0  0  3  0  0  0  0  0  0
  102.7610  105.8660  103.3730 C   0  0  0  0  0  3  0  0  0  0  0  0
  102.4940  103.4650  103.3430 C   0  0  0  0  0  3  0  0  0  0  0  0
  103.0910  104.6190  102.8550 C   0  0  0  0  0  0  0  0  0  0  0  0
  103.9980  104.5290  101.8720 F   0  0  0  0  0  0  0  0  0  0  0  0
  1 10  1  0  0  0  0
  2  1  2  0  0  0  0
  3  8  1  0  0  0  0
  3  2  1  0  0  0  0
  4  3  2  0  0  0  0
  5  4  1  0  0  0  0
  6  5  2  0  0  0  0
  6  7  1  0  0  0  0
  7 23  1  0  0  0  0
  7  8  2  0  0  0  0
  8  9  1  0  0  0  0
  9  1  1  0  0  0  0
 10 15  1  0  0  0  0
 11 13  1  0  0  0  0
 11 16  1  0  0  0  0
 12 11  2  0  0  0  0
 14 10  2  0  0  0  0
 14 12  1  0  0  0  0
 15 13  2  0  0  0  0
 16 17  1  0  0  0  0
 17 19  1  0  0  0  0
 18 17  1  0  0  0  0
 19 20  1  0  0  0  0
 21 20  1  0  0  0  0
 22 21  1  0  0  0  0
 23 24  1  0  0  0  0
 24 25  1  0  0  0  0
 25 27  2  0  0  0  0
 26 24  2  0  0  0  0
 26 28  1  0  0  0  0
 28 29  2  0  0  0  0
 29 27  1  0  0  0  0
 29 31  1  0  0  0  0
 30 26  1  0  0  0  0
 31 32  1  0  0  0  0
 32 35  1  0  0  0  0
 32 33  2  0  0  0  0
 34 31  1  0  0  0  0
 35 37  1  0  0  0  0
 35 36  1  0  0  0  0
 37 36  1  0  0  0  0
 38 35  1  0  0  0  0
 39 38  2  0  0  0  0
 40 41  1  0  0  0  0
 40 38  1  0  0  0  0
 42 40  1  0  0  0  0
 43 42  1  0  0  0  0
 44 42  2  0  0  0  0
 45 43  2  0  0  0  0
 46 44  1  0  0  0  0
 47 46  2  0  0  0  0
 47 45  1  0  0  0  0
 48 47  1  0  0  0  0
M  END
>  <minimizedAffinity>
-8.56611538

>  <CNNscore>
0.496749192

>  <CNNaffinity>
8.262743

$$$$
