
 OpenBabel07312604433D

 33 36  0  0  0  0  0  0  0  0999 V2000
   92.5250  100.0550  102.4180 C   0  0  0  0  0  0  0  0  0  0  0  0
   93.6750  100.5840  103.1200 N   0  0  0  0  0  0  0  0  0  0  0  0
   95.1010   98.9040  102.4690 O   0  0  0  0  0  0  0  0  0  0  0  0
   94.9030   99.9640  103.0480 C   0  0  0  0  0  0  0  0  0  0  0  0
   93.6190  101.5380  103.4470 H   0  0  0  0  0  0  0  0  0  0  0  0
   96.0360  100.6710  103.7020 C   0  0  0  0  0  0  0  0  0  0  0  0
   97.0200   99.9060  104.3320 C   0  0  0  0  0  0  0  0  0  0  0  0
   96.1210  102.0710  103.7270 C   0  0  0  0  0  0  0  0  0  0  0  0
   98.1040  100.5370  104.9390 C   0  0  0  0  0  0  0  0  0  0  0  0
   97.1840  102.7190  104.3810 C   0  0  0  0  0  0  0  0  0  0  0  0
   98.1870  101.9380  104.9480 C   0  0  0  0  0  0  0  0  0  0  0  0
   97.1540  104.1200  104.3470 N   0  0  0  0  0  0  0  0  0  0  0  0
   99.6520  102.6930  105.5710 S   0  0  0  0  0  0  0  0  0  0  0  0
   97.6830  105.0960  105.1540 C   0  0  0  0  0  0  0  0  0  0  0  0
   99.1210  103.8010  106.8200 C   0  0  0  0  0  0  0  0  0  0  0  0
  100.2440  103.4720  104.5020 O   0  0  0  0  0  0  0  0  0  0  0  0
  100.4220  101.6490  106.2250 O   0  0  0  0  0  0  0  0  0  0  0  0
   97.5330  106.2690  104.8090 O   0  0  0  0  0  0  0  0  0  0  0  0
   98.2420  104.8270  106.4980 C   0  0  0  0  0  0  0  0  0  0  0  0
   99.6090  103.6490  108.1280 C   0  0  0  0  0  0  0  0  0  0  0  0
   97.8670  105.7260  107.5150 C   0  0  0  0  0  0  0  0  0  0  0  0
   99.2140  104.5380  109.1260 C   0  0  0  0  0  0  0  0  0  0  0  0
   98.3440  105.5790  108.8190 C   0  0  0  0  0  0  0  0  0  0  0  0
   96.5730  104.5500  103.6330 H   0  0  0  0  0  0  0  0  0  0  0  0
   91.5960   99.4500  103.4120 C   0  0  0  0  0  0  0  0  0  0  0  0
   90.2200   99.5230  103.4740 C   0  0  0  0  0  0  0  0  0  0  0  0
   92.1730   98.5140  104.7280 S   0  0  0  0  0  0  0  0  0  0  0  0
   89.6280   98.8490  104.5210 N   0  0  0  0  0  0  0  0  0  0  0  0
   90.5530   98.2680  105.2720 C   0  0  0  0  0  0  0  0  0  0  0  0
   90.3140   97.4410  106.5070 C   0  0  0  0  0  0  0  0  0  0  0  0
   90.6910   96.1440  106.3400 F   0  0  0  0  0  0  0  0  0  0  0  0
   90.9970   97.9020  107.5900 F   0  0  0  0  0  0  0  0  0  0  0  0
   88.9990   97.4210  106.8630 F   0  0  0  0  0  0  0  0  0  0  0  0
  1  2  1  0  0  0  0
  1 25  1  0  0  0  0
  2  5  1  0  0  0  0
  3  4  2  0  0  0  0
  4  2  1  0  0  0  0
  4  6  1  0  0  0  0
  6  8  2  0  0  0  0
  6  7  1  0  0  0  0
  7  9  2  0  0  0  0
  8 10  1  0  0  0  0
  9 11  1  0  0  0  0
 10 11  2  0  0  0  0
 11 13  1  0  0  0  0
 12 10  1  0  0  0  0
 12 14  1  0  0  0  0
 13 17  2  0  0  0  0
 13 15  1  0  0  0  0
 14 19  1  0  0  0  0
 15 20  1  0  0  0  0
 16 13  2  0  0  0  0
 18 14  2  0  0  0  0
 19 15  2  0  0  0  0
 19 21  1  0  0  0  0
 20 22  2  0  0  0  0
 21 23  2  0  0  0  0
 23 22  1  0  0  0  0
 24 12  1  0  0  0  0
 25 26  2  0  0  0  0
 25 27  1  0  0  0  0
 26 28  1  0  0  0  0
 27 29  1  0  0  0  0
 28 29  2  0  0  0  0
 29 30  1  0  0  0  0
 30 33  1  0  0  0  0
 30 32  1  0  0  0  0
 31 30  1  0  0  0  0
M  END
>  <minimizedAffinity>
-8.82629681

>  <CNNscore>
0.664833128

>  <CNNaffinity>
6.6617074

$$$$
