
 OpenBabel07312605583D

 46 50  0  0  1  0  0  0  0  0999 V2000
  101.1310   99.0410  105.6990 C   0  0  0  0  0  0  0  0  0  0  0  0
  101.7810   98.0740  106.3690 N   0  0  0  0  0  0  0  0  0  0  0  0
  102.4330   98.4350  107.4950 C   0  0  0  0  0  0  0  0  0  0  0  0
  102.4100   99.7070  108.0110 C   0  0  0  0  0  0  0  0  0  0  0  0
  103.2160  100.0600  109.4840 Cl  0  0  0  0  0  0  0  0  0  0  0  0
  101.6590  100.6350  107.2990 C   0  0  0  0  0  0  0  0  0  0  0  0
  101.0830  100.3150  106.1170 N   0  0  0  0  0  0  0  0  0  0  0  0
  100.4580   98.6340  104.5570 N   0  0  0  0  0  0  0  0  0  0  0  0
  101.1100   98.3430  103.8400 H   0  0  0  0  0  0  0  0  0  0  0  0
   99.1700   98.9130  104.0740 C   0  0  0  0  0  0  0  0  0  0  0  0
   96.7500   99.2310  104.3570 C   0  0  0  0  0  0  0  0  0  0  0  0
   98.0230   98.9100  104.8780 C   0  0  0  0  0  0  0  0  0  0  0  0
   96.6140   99.5050  102.9830 C   0  0  0  0  0  0  0  0  0  0  0  0
   97.7470   99.4460  102.1530 C   0  0  0  0  0  0  0  0  0  0  0  0
   99.0090   99.1810  102.6990 C   0  0  0  0  0  0  0  0  0  0  0  0
   95.5730   99.2600  105.3010 C   0  0  0  0  0  0  0  0  0  0  0  0
   95.3250   99.8970  102.3800 C   0  0  0  0  0  0  0  0  0  0  0  0
   94.2230  100.1240  103.1200 C   0  0  0  0  0  0  0  0  0  0  0  0
   95.2680  100.0110  100.8760 C   0  0  0  0  0  0  0  0  0  0  0  0
   92.9010  100.5440  102.5270 C   0  0  0  0  0  0  0  0  0  0  0  0
   93.8260  100.0620  100.3410 C   0  0  0  0  0  0  0  0  0  0  0  0
   92.9930  100.9830  101.1270 N   0  0  1  0  0  0  0  0  0  0  0  0
   91.6980  101.2620  100.4750 C   0  0  0  0  0  0  0  0  0  0  0  0
   90.8280  102.2710  101.2370 C   0  0  0  0  0  0  0  0  0  0  0  0
   90.8540  100.0250  100.1020 C   0  0  0  0  0  0  0  0  0  0  0  0
   89.6430  102.6990  100.3680 C   0  0  0  0  0  0  0  0  0  0  0  0
   89.3740  100.3740   99.9340 C   0  0  0  0  0  0  0  0  0  0  0  0
   89.2270  101.6980   99.4340 O   0  0  0  0  0  0  0  0  0  0  0  0
  100.1270   99.1040  101.9040 O   0  0  0  0  0  0  0  0  0  0  0  0
  100.4120  100.2970  101.1560 C   0  0  0  0  0  0  0  0  0  0  0  0
  101.8010  100.8090  101.5250 C   0  0  0  0  0  0  0  0  0  0  0  0
  100.3660   99.8970   99.6840 C   0  0  0  0  0  0  0  0  0  0  0  0
  101.4620  101.9570  107.8380 N   0  0  0  0  0  0  0  0  0  0  0  0
  101.6110  101.8540  108.8560 H   0  0  0  0  0  0  0  0  0  0  0  0
  100.2830  102.7080  107.5750 C   0  0  0  0  0  0  0  0  0  0  0  0
   99.2300  102.6550  108.5070 C   0  0  0  0  0  0  0  0  0  0  0  0
  100.1390  103.5810  106.4780 C   0  0  0  0  0  0  0  0  0  0  0  0
   98.1160  103.4900  108.4000 C   0  0  0  0  0  0  0  0  0  0  0  0
   99.0450  104.4560  106.3970 C   0  0  0  0  0  0  0  0  0  0  0  0
   98.0370  104.4090  107.3620 C   0  0  0  0  0  0  0  0  0  0  0  0
  101.3190  103.6270  105.1470 S   0  0  0  0  0  0  0  0  0  0  0  0
  102.5790  103.1230  105.6690 O   0  0  0  0  0  0  0  0  0  0  0  0
  100.7010  102.9710  104.0000 O   0  0  0  0  0  0  0  0  0  0  0  0
  101.5150  105.3600  104.7040 C   0  0  0  0  0  0  0  0  0  0  0  0
  102.6400  105.5670  103.6860 C   0  0  0  0  0  0  0  0  0  0  0  0
  100.2160  106.0030  104.2340 C   0  0  0  0  0  0  0  0  0  0  0  0
  1  7  2  0  0  0  0
  1  2  1  0  0  0  0
  2  3  2  0  0  0  0
  3  4  1  0  0  0  0
  4  5  1  0  0  0  0
  6 33  1  0  0  0  0
  6  4  2  0  0  0  0
  7  6  1  0  0  0  0
  8  1  1  0  0  0  0
  9  8  1  0  0  0  0
 10  8  1  0  0  0  0
 10 12  1  0  0  0  0
 11 12  2  0  0  0  0
 11 16  1  0  0  0  0
 13 11  1  0  0  0  0
 14 15  1  0  0  0  0
 14 13  2  0  0  0  0
 15 10  2  0  0  0  0
 17 13  1  0  0  0  0
 17 18  2  0  0  0  0
 19 17  1  0  0  0  0
 20 18  1  0  0  0  0
 21 19  1  0  0  0  0
 21 22  1  0  0  0  0
 22 23  1  6  0  0  0
 22 20  1  0  0  0  0
 23 24  1  0  0  0  0
 25 23  1  0  0  0  0
 26 24  1  0  0  0  0
 27 25  1  0  0  0  0
 28 27  1  0  0  0  0
 28 26  1  0  0  0  0
 29 15  1  0  0  0  0
 30 31  1  0  0  0  0
 30 29  1  0  0  0  0
 32 30  1  0  0  0  0
 33 34  1  0  0  0  0
 35 33  1  0  0  0  0
 35 36  1  0  0  0  0
 37 35  2  0  0  0  0
 38 36  2  0  0  0  0
 39 37  1  0  0  0  0
 39 40  2  0  0  0  0
 40 38  1  0  0  0  0
 41 42  2  0  0  0  0
 41 37  1  0  0  0  0
 43 41  2  0  0  0  0
 44 41  1  0  0  0  0
 45 44  1  0  0  0  0
 46 44  1  0  0  0  0
M  END
>  <minimizedAffinity>
-7.8009057

>  <CNNscore>
0.587437272

>  <CNNaffinity>
8.46422195

$$$$
