
 OpenBabel07302617143D

 28 31  0  0  1  0  0  0  0  0999 V2000
   95.1050  104.8610  106.1790 O   0  0  0  0  0  0  0  0  0  0  0  0
   95.1660  103.6980  105.8070 C   0  0  0  0  0  0  0  0  0  0  0  0
   94.9020  103.3810  104.5220 O   0  0  0  0  0  0  0  0  0  0  0  0
   94.5840  104.2140  104.1180 H   0  0  0  0  0  0  0  0  0  0  0  0
   95.5770  102.4840  106.6460 C   0  0  2  0  0  0  0  0  0  0  0  0
   96.9390  102.6980  107.3160 C   0  0  0  0  0  0  0  0  0  0  0  0
   95.5400  101.2350  105.8450 N   0  0  0  0  0  0  0  0  0  0  0  0
   98.0310  102.6520  106.2620 C   0  0  0  0  0  0  0  0  0  0  0  0
   96.7490  100.7240  105.3390 C   0  0  0  0  0  0  0  0  0  0  0  0
   98.7890  103.6930  105.8460 C   0  0  0  0  0  0  0  0  0  0  0  0
   98.0050  101.3240  105.5920 C   0  0  0  0  0  0  0  0  0  0  0  0
   96.6990   99.4980  104.6570 C   0  0  0  0  0  0  0  0  0  0  0  0
   99.7330  103.7400  104.6790 C   0  0  0  0  0  0  0  0  0  0  0  0
   98.7450  105.0940  106.4090 C   0  0  0  0  0  0  0  0  0  0  0  0
   99.1760  100.6310  105.2460 C   0  0  0  0  0  0  0  0  0  0  0  0
   97.8710   98.8580  104.2650 C   0  0  0  0  0  0  0  0  0  0  0  0
  100.5300  105.0100  104.8950 C   0  0  0  0  0  0  0  0  0  0  0  0
   99.7470  105.8340  105.7780 N   0  0  0  0  0  0  0  0  0  0  0  0
   97.9410  105.4640  107.2460 O   0  0  0  0  0  0  0  0  0  0  0  0
   99.1100   99.4100  104.5710 C   0  0  0  0  0  0  0  0  0  0  0  0
   94.8200  101.2590  105.1220 H   0  0  0  0  0  0  0  0  0  0  0  0
   97.7910   97.3520  103.4370 Cl  0  0  0  0  0  0  0  0  0  0  0  0
  100.0810  107.1980  106.0320 C   0  0  0  0  0  0  0  0  0  0  0  0
  101.4030  107.6600  105.9950 C   0  0  0  0  0  0  0  0  0  0  0  0
   99.0790  108.1350  106.3380 C   0  0  0  0  0  0  0  0  0  0  0  0
  101.7150  109.0010  106.2510 C   0  0  0  0  0  0  0  0  0  0  0  0
   99.3870  109.4780  106.5930 C   0  0  0  0  0  0  0  0  0  0  0  0
  100.7070  109.9110  106.5500 C   0  0  0  0  0  0  0  0  0  0  0  0
  2  1  2  0  0  0  0
  3  2  1  0  0  0  0
  4  3  1  0  0  0  0
  5  2  1  6  0  0  0
  5  6  1  0  0  0  0
  7  5  1  0  0  0  0
  8  6  1  0  0  0  0
  9 11  1  0  0  0  0
  9  7  1  0  0  0  0
 10  8  2  0  0  0  0
 10 14  1  0  0  0  0
 11  8  1  0  0  0  0
 12  9  2  0  0  0  0
 13 17  1  0  0  0  0
 13 10  1  0  0  0  0
 14 19  2  0  0  0  0
 15 11  2  0  0  0  0
 16 20  2  0  0  0  0
 16 12  1  0  0  0  0
 17 18  1  0  0  0  0
 18 23  1  0  0  0  0
 18 14  1  0  0  0  0
 20 15  1  0  0  0  0
 21  7  1  0  0  0  0
 22 16  1  0  0  0  0
 23 25  1  0  0  0  0
 24 23  2  0  0  0  0
 24 26  1  0  0  0  0
 25 27  2  0  0  0  0
 26 28  2  0  0  0  0
 28 27  1  0  0  0  0
M  END
>  <minimizedAffinity>
-7.47698021

>  <CNNscore>
0.721800566

>  <CNNaffinity>
6.51495409

$$$$
