
 OpenBabel07312612183D

 32 36  0  0  0  0  0  0  0  0999 V2000
   95.8580  101.1480  103.8770 N   0  0  0  0  0  0  0  0  0  0  0  0
   95.4680  102.2890  104.5490 C   0  0  0  0  0  0  0  0  0  0  0  0
   96.2090  102.9790  105.3520 N   0  0  0  0  0  0  0  0  0  0  0  0
   97.5170  102.5320  105.5680 C   0  0  0  0  0  0  0  0  0  0  0  0
   98.3240  103.2170  106.4710 C   0  0  0  0  0  0  0  0  0  0  0  0
   99.6380  102.7960  106.7080 C   0  0  0  0  0  0  0  0  0  0  0  0
  100.1900  101.6810  106.0520 C   0  0  0  0  0  0  0  0  0  0  0  0
   99.3660  101.0040  105.1460 C   0  0  0  0  0  0  0  0  0  0  0  0
   98.0460  101.4260  104.9130 C   0  0  0  0  0  0  0  0  0  0  0  0
   97.1820  100.7080  103.9540 C   0  0  0  0  0  0  0  0  0  0  0  0
   97.6850   99.8260  103.2610 O   0  0  0  0  0  0  0  0  0  0  0  0
   94.9390  100.5080  102.9840 C   0  0  0  0  0  0  0  0  0  0  0  0
   95.1010   99.1730  102.5510 C   0  0  0  0  0  0  0  0  0  0  0  0
   94.1800   98.6300  101.6340 C   0  0  0  0  0  0  0  0  0  0  0  0
   93.0920   99.3730  101.1750 C   0  0  0  0  0  0  0  0  0  0  0  0
   93.8230  101.2370  102.5310 C   0  0  0  0  0  0  0  0  0  0  0  0
   92.9140  100.6830  101.6210 C   0  0  0  0  0  0  0  0  0  0  0  0
   96.1950   98.2610  103.0440 C   0  0  0  0  0  0  0  0  0  0  0  0
   91.7670  101.5170  101.1760 C   0  0  0  0  0  0  0  0  0  0  0  0
   91.8250  102.7370  101.2920 O   0  0  0  0  0  0  0  0  0  0  0  0
   90.7000  100.8380  100.6180 N   0  0  0  0  0  0  0  0  0  0  0  0
   90.8080   99.8600  100.3830 H   0  0  0  0  0  0  0  0  0  0  0  0
   89.5550  101.5240  100.1070 C   0  0  0  0  0  0  0  0  0  0  0  0
   89.6890  102.9120   99.5480 C   0  0  0  0  0  0  0  0  0  0  0  0
   88.9710  102.6960  100.8480 C   0  0  0  0  0  0  0  0  0  0  0  0
  101.5100  101.3070  106.3280 N   0  0  0  0  0  0  0  0  0  0  0  0
  101.9220  101.5860  107.7290 C   0  0  0  0  0  0  0  0  0  0  0  0
  102.0630  100.0570  105.7670 C   0  0  0  0  0  0  0  0  0  0  0  0
  103.1900  100.7920  108.1180 C   0  0  0  0  0  0  0  0  0  0  0  0
  102.1860   98.9580  106.8450 C   0  0  0  0  0  0  0  0  0  0  0  0
  103.0200   99.3250  108.0130 N   0  0  0  0  0  0  0  0  0  0  0  0
  104.3200   98.6610  107.9840 C   0  0  0  0  0  0  0  0  0  0  0  0
  1 10  1  0  0  0  0
  1  2  1  0  0  0  0
  2  3  2  0  0  0  0
  3  4  1  0  0  0  0
  4  5  1  0  0  0  0
  5  6  2  0  0  0  0
  7 26  1  0  0  0  0
  7  6  1  0  0  0  0
  8  7  2  0  0  0  0
  9  8  1  0  0  0  0
  9  4  2  0  0  0  0
 10  9  1  0  0  0  0
 11 10  2  0  0  0  0
 12  1  1  0  0  0  0
 13 12  1  0  0  0  0
 13 18  1  0  0  0  0
 14 13  2  0  0  0  0
 15 17  2  0  0  0  0
 15 14  1  0  0  0  0
 16 12  2  0  0  0  0
 17 16  1  0  0  0  0
 19 20  2  0  0  0  0
 19 17  1  0  0  0  0
 21 19  1  0  0  0  0
 22 21  1  0  0  0  0
 23 21  1  0  0  0  0
 23 25  1  0  0  0  0
 24 23  1  0  0  0  0
 24 25  1  0  0  0  0
 26 27  1  0  0  0  0
 27 29  1  0  0  0  0
 28 26  1  0  0  0  0
 28 30  1  0  0  0  0
 30 31  1  0  0  0  0
 31 29  1  0  0  0  0
 32 31  1  0  0  0  0
M  END
>  <minimizedAffinity>
-6.99485779

>  <CNNscore>
0.706969738

>  <CNNaffinity>
6.95109797

$$$$
