
 OpenBabel07302616253D

 41 45  0  0  1  0  0  0  0  0999 V2000
   97.5720   99.5320  103.4710 C   0  0  0  0  0  0  0  0  0  0  0  0
   97.9180  100.5820  104.3040 C   0  0  0  0  0  0  0  0  0  0  0  0
   99.1840  100.7590  104.7670 N   0  0  0  0  0  0  0  0  0  0  0  0
  100.1220   99.8690  104.3640 C   0  0  0  0  0  0  0  0  0  0  0  0
   99.7400   98.8100  103.5220 C   0  0  0  0  0  0  0  0  0  0  0  0
   98.4790   98.6080  103.0530 N   0  0  0  0  0  0  0  0  0  0  0  0
   96.1650   99.3660  103.0110 C   0  0  0  0  0  0  0  0  0  0  0  0
   95.2680   99.3320  104.0520 N   0  0  0  0  0  0  0  0  0  0  0  0
   95.9360   99.2810  101.8110 O   0  0  0  0  0  0  0  0  0  0  0  0
   95.6390   99.4030  104.9950 H   0  0  0  0  0  0  0  0  0  0  0  0
   93.9040   99.2610  103.9800 C   0  0  0  0  0  0  0  0  0  0  0  0
   91.5390   99.4170  103.4520 C   0  0  0  0  0  0  0  0  0  0  0  0
   93.0030  100.0470  102.7830 S   0  0  0  0  0  0  0  0  0  0  0  0
   91.8500   98.6740  104.5840 C   0  0  0  0  0  0  0  0  0  0  0  0
   93.2140   98.5780  104.8550 N   0  0  0  0  0  0  0  0  0  0  0  0
   90.2430   99.7710  102.7840 C   0  0  0  0  0  0  0  0  0  0  0  0
   90.3370  100.9680  101.9520 N   0  0  0  0  0  0  0  0  0  0  0  0
   89.1950  101.2810  101.0810 C   0  0  1  0  0  0  0  0  0  0  0  0
   89.7760  102.4420  100.2740 C   0  0  0  0  0  0  0  0  0  0  0  0
   91.2530  102.0960  100.1020 C   0  0  0  0  0  0  0  0  0  0  0  0
   91.5280  100.9810  101.1010 C   0  0  0  0  0  0  0  0  0  0  0  0
   88.7160  100.1580  100.1550 C   0  0  0  0  0  0  0  0  0  0  0  0
   90.8490   97.9420  105.5690 C   0  0  0  0  0  0  0  0  0  0  0  0
   90.6310   98.2100  106.9040 C   0  0  0  0  0  0  0  0  0  0  0  0
   89.8660   96.6360  105.0330 S   0  0  0  0  0  0  0  0  0  0  0  0
   89.6250   97.3760  107.4680 C   0  0  0  0  0  0  0  0  0  0  0  0
   89.1240   96.4740  106.5610 C   0  0  0  0  0  0  0  0  0  0  0  0
   89.1190   97.5070  109.0930 Cl  0  0  0  0  0  0  0  0  0  0  0  0
  101.4460   99.9830  104.8160 N   0  0  0  0  0  0  0  0  0  0  0  0
  101.9950   98.7550  105.4320 C   0  0  0  0  0  0  0  0  0  0  0  0
  101.7070  101.2020  105.6200 C   0  0  0  0  0  0  0  0  0  0  0  0
  101.6330   98.6260  106.9330 C   0  0  0  0  0  0  0  0  0  0  0  0
  101.3250  101.0010  107.1210 C   0  0  1  0  0  0  0  0  0  0  0  0
  101.9740   99.8160  107.7630 N   0  0  0  0  0  0  0  0  0  0  0  0
  101.5340  102.3040  107.9030 C   0  0  0  0  0  0  0  0  0  0  0  0
  103.4280   99.9770  107.9680 C   0  0  0  0  0  0  0  0  0  0  0  0
  104.0230   98.9370  108.9250 C   0  0  0  0  0  0  0  0  0  0  0  0
  105.0320   98.0750  108.2170 C   0  0  0  0  0  0  0  0  0  0  0  0
  104.8470   97.3560  107.2500 O   0  0  0  0  0  0  0  0  0  0  0  0
  106.2510   98.1560  108.7870 O   0  0  0  0  0  0  0  0  0  0  0  0
  106.8160   97.5710  108.2420 H   0  0  0  0  0  0  0  0  0  0  0  0
  1  2  1  0  0  0  0
  2  3  2  0  0  0  0
  4  3  1  0  0  0  0
  4 29  1  0  0  0  0
  5  4  2  0  0  0  0
  6  1  2  0  0  0  0
  6  5  1  0  0  0  0
  7  1  1  0  0  0  0
  7  8  1  0  0  0  0
  8 10  1  0  0  0  0
  9  7  2  0  0  0  0
 11  8  1  0  0  0  0
 11 15  2  0  0  0  0
 12 14  2  0  0  0  0
 13 12  1  0  0  0  0
 13 11  1  0  0  0  0
 14 15  1  0  0  0  0
 14 23  1  0  0  0  0
 16 12  1  0  0  0  0
 17 16  1  0  0  0  0
 18 22  1  6  0  0  0
 18 17  1  0  0  0  0
 19 18  1  0  0  0  0
 20 19  1  0  0  0  0
 20 21  1  0  0  0  0
 21 17  1  0  0  0  0
 23 24  2  0  0  0  0
 24 26  1  0  0  0  0
 25 23  1  0  0  0  0
 25 27  1  0  0  0  0
 26 28  1  0  0  0  0
 27 26  2  0  0  0  0
 29 30  1  0  0  0  0
 29 31  1  0  0  0  0
 30 32  1  0  0  0  0
 31 33  1  0  0  0  0
 32 34  1  0  0  0  0
 33 34  1  0  0  0  0
 33 35  1  1  0  0  0
 34 36  1  0  0  0  0
 36 37  1  0  0  0  0
 38 40  1  0  0  0  0
 38 37  1  0  0  0  0
 39 38  2  0  0  0  0
 41 40  1  0  0  0  0
M  END
>  <minimizedAffinity>
-9.17248535

>  <CNNscore>
0.755714238

>  <CNNaffinity>
7.82725906

$$$$
