
 OpenBabel07312622473D

 38 38  0  0  1  0  0  0  0  0999 V2000
  101.3330  101.2250  104.2360 C   0  0  0  0  0  2  0  0  0  0  0  0
  101.3030  102.3980  105.2390 C   0  0  1  0  0  3  0  0  0  0  0  0
  102.2060  102.1900  106.4750 C   0  0  0  0  0  2  0  0  0  0  0  0
  101.5300  101.3590  107.5750 C   0  0  0  0  0  2  0  0  0  0  0  0
  102.5650  100.7150  108.5030 C   0  0  0  0  0  2  0  0  0  0  0  0
  103.4990   99.7830  107.7310 C   0  0  0  0  0  2  0  0  0  0  0  0
  103.1260   98.3170  107.7890 C   0  0  0  0  0  0  0  0  0  0  0  0
  102.0710   97.8820  107.3430 O   0  0  0  0  0  0  0  0  0  0  0  0
  104.0680   97.5670  108.4230 O   0  0  0  0  0  0  0  0  0  0  0  0
  105.4130   97.9640  108.1480 C   0  0  0  0  0  1  0  0  0  0  0  0
  101.7370  103.9820  104.4000 S   0  0  0  0  0  0  0  0  0  0  0  0
  100.3950  105.0030  104.8940 C   0  0  0  0  0  0  0  0  0  0  0  0
   99.2450  104.5760  104.9150 O   0  0  0  0  0  0  0  0  0  0  0  0
  100.7560  106.4110  105.2700 C   0  0  0  0  0  1  0  0  0  0  0  0
  100.0890  100.3400  104.2030 C   0  0  0  0  0  2  0  0  0  0  0  0
   99.2220  100.2570  102.5950 S   0  0  0  0  0  0  0  0  0  0  0  0
   97.5800  101.4620  102.8820 S   0  0  0  0  0  0  0  0  0  0  0  0
   96.4950  100.3510  103.7210 C   0  0  0  0  0  0  0  0  0  0  0  0
   95.8540  100.7270  104.8620 C   0  0  0  0  0  0  0  0  0  0  0  0
   95.0090   99.7660  105.6720 C   0  0  0  0  0  1  0  0  0  0  0  0
   96.4670   98.9200  103.2000 C   0  0  0  0  0  2  0  0  0  0  0  0
   95.2690   98.6330  102.2940 C   0  0  0  0  0  2  0  0  0  0  0  0
   95.3670   99.4430  101.1270 O   0  0  0  0  0  0  0  0  0  0  0  0
   94.6460   99.1720  100.5320 H   0  0  0  0  0  0  0  0  0  0  0  0
   95.9250  102.0170  105.4010 N   0  0  0  0  0  0  0  0  0  0  0  0
   96.0480  103.1460  104.5990 C   0  0  0  0  0  3  0  0  0  0  0  0
   95.1160  103.8240  104.1790 O   0  0  0  0  0  0  0  0  0  0  0  0
   95.8340  102.2120  106.8510 C   0  0  0  0  0  2  0  0  0  0  0  0
   96.7240  103.3160  107.3430 C   0  0  0  0  0  0  0  0  0  0  0  0
   97.9900  103.0280  107.8180 C   0  0  0  0  0  3  0  0  0  0  0  0
   96.3700  104.6550  107.3860 C   0  0  0  0  0  0  0  0  0  0  0  0
   98.8610  103.9560  108.2620 N   0  0  0  0  0  0  0  0  0  0  0  0
   97.2070  105.6080  107.8240 N   0  0  0  0  0  0  0  0  0  0  0  0
   98.4230  105.2230  108.2530 C   0  0  0  0  0  0  0  0  0  0  0  0
   99.3620  106.2930  108.7150 C   0  0  0  0  0  1  0  0  0  0  0  0
   95.1240  105.1130  106.9420 N   0  0  0  0  0  0  0  0  0  0  0  0
   94.3820  104.6530  107.4560 H   0  0  0  0  0  0  0  0  0  0  0  0
   95.0130  104.9320  105.9500 H   0  0  0  0  0  0  0  0  0  0  0  0
  2  1  1  6  0  0  0
  2  3  1  0  0  0  0
  3  4  1  0  0  0  0
  4  5  1  0  0  0  0
  6  7  1  0  0  0  0
  6  5  1  0  0  0  0
  7  9  1  0  0  0  0
  8  7  2  0  0  0  0
 10  9  1  0  0  0  0
 11 12  1  0  0  0  0
 11  2  1  0  0  0  0
 12 13  2  0  0  0  0
 12 14  1  0  0  0  0
 15  1  1  0  0  0  0
 16 17  1  0  0  0  0
 16 15  1  0  0  0  0
 17 18  1  0  0  0  0
 18 19  2  0  0  0  0
 19 25  1  0  0  0  0
 19 20  1  0  0  0  0
 21 18  1  0  0  0  0
 22 21  1  0  0  0  0
 23 22  1  0  0  0  0
 24 23  1  0  0  0  0
 25 28  1  0  0  0  0
 26 25  1  0  0  0  0
 27 26  2  0  0  0  0
 28 29  1  0  0  0  0
 29 31  1  0  0  0  0
 29 30  2  0  0  0  0
 30 32  1  0  0  0  0
 31 33  2  0  0  0  0
 33 34  1  0  0  0  0
 34 32  2  0  0  0  0
 34 35  1  0  0  0  0
 36 31  1  0  0  0  0
 36 37  1  0  0  0  0
 38 36  1  0  0  0  0
M  END
>  <minimizedAffinity>
-7.24655533

>  <CNNscore>
0.893035173

>  <CNNaffinity>
8.61013412

$$$$
