
 OpenBabel07312619083D

 25 27  0  0  1  0  0  0  0  0999 V2000
  100.0740  101.4240  105.4500 C   0  0  1  0  0  3  0  0  0  0  0  0
   99.5450  100.6210  104.2240 C   0  0  0  0  0  2  0  0  0  0  0  0
   99.2690   99.1760  104.4310 N   0  0  0  0  0  0  0  0  0  0  0  0
   99.8660   98.3900  103.3540 C   0  0  0  0  0  1  0  0  0  0  0  0
   97.8440   98.8880  104.5940 C   0  0  0  0  0  1  0  0  0  0  0  0
  101.1320  100.6220  106.2060 C   0  0  0  0  0  0  0  0  0  0  0  0
  101.6180   99.3980  105.7000 C   0  0  0  0  0  3  0  0  0  0  0  0
  101.6250  101.0920  107.4470 C   0  0  0  0  0  0  0  0  0  0  0  0
  102.5990   98.6830  106.3770 C   0  0  0  0  0  0  0  0  0  0  0  0
  102.6340  100.3560  108.1060 C   0  0  0  0  0  3  0  0  0  0  0  0
  103.1150   99.1620  107.5750 C   0  0  0  0  0  0  0  0  0  0  0  0
  104.3410   98.2870  108.4150 Cl  0  0  0  0  0  0  0  0  0  0  0  0
  101.1490  102.3630  108.1320 C   0  0  0  0  0  1  0  0  0  0  0  0
  103.0280   97.5100  105.8180 O   0  0  0  0  0  0  0  0  0  0  0  0
  103.6980   97.1370  106.4200 H   0  0  0  0  0  0  0  0  0  0  0  0
  100.4310  102.8850  105.1760 C   0  0  0  0  0  0  0  0  0  0  0  0
  101.5570  103.1680  104.3700 C   0  0  0  0  0  3  0  0  0  0  0  0
   99.7160  103.9850  105.6360 C   0  0  0  0  0  0  0  0  0  0  0  0
  101.9250  104.4880  104.0620 C   0  0  0  0  0  0  0  0  0  0  0  0
  100.0800  105.2920  105.3230 C   0  0  0  0  0  0  0  0  0  0  0  0
   98.5750  103.9300  106.3960 O   0  0  0  0  0  0  0  0  0  0  0  0
  101.1820  105.5670  104.5330 C   0  0  0  0  0  3  0  0  0  0  0  0
   99.0830  106.2340  105.8790 C   0  0  0  0  0  2  0  0  0  0  0  0
   98.3760  105.2890  106.8440 C   0  0  0  0  0  2  0  0  0  0  0  0
  103.4400  104.8020  102.9730 Br  0  0  0  0  0  0  0  0  0  0  0  0
  1  2  1  6  0  0  0
  1  6  1  0  0  0  0
  2  3  1  0  0  0  0
  3  5  1  0  0  0  0
  4  3  1  0  0  0  0
  6  8  1  0  0  0  0
  7  6  2  0  0  0  0
  7  9  1  0  0  0  0
  8 10  2  0  0  0  0
  8 13  1  0  0  0  0
  9 11  2  0  0  0  0
 11 10  1  0  0  0  0
 11 12  1  0  0  0  0
 14  9  1  0  0  0  0
 14 15  1  0  0  0  0
 16  1  1  0  0  0  0
 16 18  1  0  0  0  0
 17 16  2  0  0  0  0
 18 21  1  0  0  0  0
 19 17  1  0  0  0  0
 19 22  2  0  0  0  0
 20 18  2  0  0  0  0
 20 23  1  0  0  0  0
 21 24  1  0  0  0  0
 22 20  1  0  0  0  0
 23 24  1  0  0  0  0
 25 19  1  0  0  0  0
M  END
>  <minimizedAffinity>
-8.35834885

>  <CNNscore>
0.914299011

>  <CNNaffinity>
7.59433699

$$$$
