
 OpenBabel07312618403D

 37 41  0  0  1  0  0  0  0  0999 V2000
  100.9400   99.3440  105.1970 N   0  0  0  0  0  0  0  0  0  0  0  0
  100.6200   98.9550  103.8270 C   0  0  2  0  0  3  0  0  0  0  0  0
  101.2080  100.1790  103.0790 C   0  0  0  0  0  2  0  0  0  0  0  0
  100.9630  101.3520  104.0980 C   0  0  0  0  0  2  0  0  0  0  0  0
  100.2640  100.6320  105.2770 C   0  0  1  0  0  3  0  0  0  0  0  0
   98.8990  100.2150  104.7740 C   0  0  0  0  0  0  0  0  0  0  0  0
   97.6350  100.6930  105.0170 C   0  0  0  0  0  3  0  0  0  0  0  0
   96.5740  100.0700  104.3480 C   0  0  0  0  0  3  0  0  0  0  0  0
   96.7700   98.9770  103.4640 C   0  0  0  0  0  0  0  0  0  0  0  0
   98.0810   98.5310  103.2110 C   0  0  0  0  0  3  0  0  0  0  0  0
   99.1220   99.1510  103.8700 C   0  0  0  0  0  0  0  0  0  0  0  0
  102.0460   99.0280  105.9370 C   0  0  0  0  0  0  0  0  0  0  0  0
  102.5130   97.8880  105.9670 O   0  0  0  0  0  0  0  0  0  0  0  0
  102.6580  100.1530  106.7790 C   0  0  0  0  0  2  0  0  0  0  0  0
  102.6340   99.7740  108.1820 N   0  0  0  0  0  0  0  0  0  0  0  0
  103.6780   99.0730  108.7410 C   0  0  0  0  0  0  0  0  0  0  0  0
  104.7500   98.8840  108.1750 O   0  0  0  0  0  0  0  0  0  0  0  0
  103.3990   98.5470  110.1220 C   0  0  0  0  0  1  0  0  0  0  0  0
  101.7070   99.6130  108.5660 H   0  0  0  0  0  0  0  0  0  0  0  0
   95.7210   98.3540  102.7710 N   0  0  0  0  0  0  0  0  0  0  0  0
   95.6190   97.3590  102.9180 H   0  0  0  0  0  0  0  0  0  0  0  0
   94.5800   98.8380  102.1420 C   0  0  0  0  0  0  0  0  0  0  0  0
   93.9900   97.9960  101.2900 N   0  0  0  0  0  0  0  0  0  0  0  0
   94.1290  100.0820  102.3580 N   0  0  0  0  0  0  0  0  0  0  0  0
   92.8700   98.4310  100.6820 C   0  0  0  0  0  3  0  0  0  0  0  0
   93.0290  100.5070  101.7080 C   0  0  0  0  0  0  0  0  0  0  0  0
   92.3240   99.6840  100.8610 C   0  0  0  0  0  0  0  0  0  0  0  0
   92.7050  101.8360  102.0160 N   0  0  0  0  0  0  0  0  0  0  0  0
   92.1810  101.7630  102.8910 H   0  0  0  0  0  0  0  0  0  0  0  0
   93.6070  102.9500  102.0010 C   0  0  0  0  0  3  0  0  0  0  0  0
   94.4990  103.0090  103.2680 C   0  0  0  0  0  2  0  0  0  0  0  0
   94.9130  102.6890  101.2040 C   0  0  0  0  0  2  0  0  0  0  0  0
   95.6590  103.4200  102.3360 C   0  0  0  0  0  2  0  0  0  0  0  0
   91.0610  100.0430  100.1650 C   0  0  0  0  0  0  0  0  0  0  0  0
   90.0510  100.3650  101.0230 F   0  0  0  0  0  0  0  0  0  0  0  0
   90.5800   99.0690   99.3510 F   0  0  0  0  0  0  0  0  0  0  0  0
   91.1850  101.1380   99.3550 F   0  0  0  0  0  0  0  0  0  0  0  0
  1  5  1  0  0  0  0
  1 12  1  0  0  0  0
  2  3  1  6  0  0  0
  2 11  1  0  0  0  0
  2  1  1  0  0  0  0
  3  4  1  0  0  0  0
  5  4  1  6  0  0  0
  6  7  1  0  0  0  0
  6  5  1  0  0  0  0
  8  7  2  0  0  0  0
  9  8  1  0  0  0  0
 10  9  2  0  0  0  0
 10 11  1  0  0  0  0
 11  6  2  0  0  0  0
 12 13  2  0  0  0  0
 12 14  1  0  0  0  0
 14 15  1  0  0  0  0
 15 19  1  0  0  0  0
 15 16  1  0  0  0  0
 16 18  1  0  0  0  0
 17 16  2  0  0  0  0
 20 21  1  0  0  0  0
 20  9  1  0  0  0  0
 22 24  1  0  0  0  0
 22 20  1  0  0  0  0
 23 22  2  0  0  0  0
 25 27  2  0  0  0  0
 25 23  1  0  0  0  0
 26 28  1  0  0  0  0
 26 24  2  0  0  0  0
 27 26  1  0  0  0  0
 28 29  1  0  0  0  0
 30 28  1  0  0  0  0
 30 31  1  0  0  0  0
 32 30  1  0  0  0  0
 32 33  1  0  0  0  0
 33 31  1  0  0  0  0
 34 27  1  0  0  0  0
 34 35  1  0  0  0  0
 36 34  1  0  0  0  0
 37 34  1  0  0  0  0
M  END
>  <minimizedAffinity>
-8.43845558

>  <CNNscore>
0.618179023

>  <CNNaffinity>
6.83260727

$$$$
