
 OpenBabel07302617023D

 34 38  0  0  1  0  0  0  0  0999 V2000
  101.4670  102.7250  104.5400 C   0  0  0  0  0  0  0  0  0  0  0  0
  100.9980  101.5530  103.9270 C   0  0  0  0  0  0  0  0  0  0  0  0
  100.9970  100.3380  104.6120 C   0  0  0  0  0  0  0  0  0  0  0  0
  101.4980  100.2770  105.9110 C   0  0  0  0  0  0  0  0  0  0  0  0
  101.9790  101.4330  106.5320 C   0  0  0  0  0  0  0  0  0  0  0  0
  102.5990  101.3910  108.1420 Cl  0  0  0  0  0  0  0  0  0  0  0  0
  101.9770  102.6490  105.8430 C   0  0  0  0  0  0  0  0  0  0  0  0
  101.4680  103.9210  103.7760 N   0  0  0  0  0  0  0  0  0  0  0  0
  102.0760  103.7710  102.9670 H   0  0  0  0  0  0  0  0  0  0  0  0
  101.8360  105.2070  104.2310 C   0  0  0  0  0  0  0  0  0  0  0  0
   98.9420  106.4580  106.3410 C   0  0  0  0  0  0  0  0  0  0  0  0
   99.5150  107.6690  106.7180 C   0  0  0  0  0  0  0  0  0  0  0  0
   99.7010  105.6310  105.5010 C   0  0  0  0  0  0  0  0  0  0  0  0
  100.7920  108.0350  106.2700 C   0  0  0  0  0  0  0  0  0  0  0  0
  101.0060  105.9850  105.0600 C   0  0  0  0  0  0  0  0  0  0  0  0
  101.5450  107.2160  105.4430 C   0  0  0  0  0  0  0  0  0  0  0  0
  102.7490  107.6390  105.0400 N   0  0  0  0  0  0  0  0  0  0  0  0
  103.0340  105.6290  103.7900 N   0  0  0  0  0  0  0  0  0  0  0  0
  103.4300  106.8290  104.2230 C   0  0  0  0  0  0  0  0  0  0  0  0
   97.6670  106.0360  106.7340 N   0  0  0  0  0  0  0  0  0  0  0  0
   96.6270  102.6670  106.9160 C   0  0  2  0  0  0  0  0  0  0  0  0
   95.3650  103.4980  106.9730 C   0  0  0  0  0  0  0  0  0  0  0  0
   97.6800  103.6280  106.5630 N   0  0  0  0  0  0  0  0  0  0  0  0
   95.8460  104.8160  107.1950 O   0  0  0  0  0  0  0  0  0  0  0  0
   97.1520  104.7830  106.8050 C   0  0  0  0  0  0  0  0  0  0  0  0
   96.5660  101.5510  105.8900 C   0  0  0  0  0  0  0  0  0  0  0  0
   97.0110  106.7640  106.9750 H   0  0  0  0  0  0  0  0  0  0  0  0
  101.4510   99.0790  106.5710 O   0  0  0  0  0  0  0  0  0  0  0  0
  102.5890   98.2630  106.2430 C   0  0  0  0  0  0  0  0  0  0  0  0
  103.4240   98.1350  107.4810 C   0  0  0  0  0  0  0  0  0  0  0  0
  104.7400   98.0280  107.4880 N   0  0  0  0  0  0  0  0  0  0  0  0
  102.6790   98.1220  109.0350 S   0  0  0  0  0  0  0  0  0  0  0  0
  105.1930   97.9220  108.7880 C   0  0  0  0  0  0  0  0  0  0  0  0
  104.2200   97.9540  109.7620 C   0  0  0  0  0  0  0  0  0  0  0  0
  1  7  1  0  0  0  0
  2  1  2  0  0  0  0
  2  3  1  0  0  0  0
  3  4  2  0  0  0  0
  4  5  1  0  0  0  0
  4 28  1  0  0  0  0
  5  6  1  0  0  0  0
  7  5  2  0  0  0  0
  8 10  1  0  0  0  0
  8  1  1  0  0  0  0
  9  8  1  0  0  0  0
 10 15  1  0  0  0  0
 11 12  1  0  0  0  0
 11 20  1  0  0  0  0
 13 11  2  0  0  0  0
 14 12  2  0  0  0  0
 15 16  2  0  0  0  0
 15 13  1  0  0  0  0
 16 14  1  0  0  0  0
 17 16  1  0  0  0  0
 18 19  1  0  0  0  0
 18 10  2  0  0  0  0
 19 17  2  0  0  0  0
 20 25  1  0  0  0  0
 20 27  1  0  0  0  0
 21 26  1  6  0  0  0
 21 22  1  0  0  0  0
 22 24  1  0  0  0  0
 23 25  2  0  0  0  0
 23 21  1  0  0  0  0
 25 24  1  0  0  0  0
 29 28  1  0  0  0  0
 29 30  1  0  0  0  0
 30 31  2  0  0  0  0
 30 32  1  0  0  0  0
 31 33  1  0  0  0  0
 32 34  1  0  0  0  0
 33 34  2  0  0  0  0
M  END
>  <minimizedAffinity>
-8.28606796

>  <CNNscore>
0.708909273

>  <CNNaffinity>
8.43763828

$$$$
