
 OpenBabel07302620283D

 44 45  0  0  0  0  0  0  0  0999 V2000
   99.1460  103.9160  108.6100 C   0  0  0  0  0  0  0  0  0  0  0  0
   99.1970  105.4330  108.3830 C   0  0  0  0  0  0  0  0  0  0  0  0
   98.2740  105.9560  107.2800 C   0  0  0  0  0  0  0  0  0  0  0  0
   97.9580  104.9170  106.3090 N   0  0  0  0  0  0  0  0  0  0  0  0
   95.6110  105.0610  106.4260 N   0  0  0  0  0  0  0  0  0  0  0  0
   96.6880  104.5900  105.9070 C   0  0  0  0  0  0  0  0  0  0  0  0
   96.7350  103.6720  104.8920 N   0  0  0  0  0  0  0  0  0  0  0  0
   95.8040  103.1690  104.0170 C   0  0  0  0  0  0  0  0  0  0  0  0
   94.6230  103.6610  103.8380 N   0  0  0  0  0  0  0  0  0  0  0  0
   96.3100  102.1110  103.2990 N   0  0  0  0  0  0  0  0  0  0  0  0
   95.8120  105.7210  107.1710 H   0  0  0  0  0  0  0  0  0  0  0  0
   98.6020  104.9440  105.5270 H   0  0  0  0  0  0  0  0  0  0  0  0
   97.5210  103.0560  105.0120 H   0  0  0  0  0  0  0  0  0  0  0  0
   94.1480  103.1540  103.0920 H   0  0  0  0  0  0  0  0  0  0  0  0
   97.2430  102.2420  102.9370 H   0  0  0  0  0  0  0  0  0  0  0  0
   95.5830  101.0750  102.6810 C   0  0  0  0  0  0  0  0  0  0  0  0
   95.0650  101.1940  101.3830 C   0  0  0  0  0  0  0  0  0  0  0  0
   95.3650   99.8750  103.3740 C   0  0  0  0  0  0  0  0  0  0  0  0
   94.3650  100.1420  100.7850 C   0  0  0  0  0  0  0  0  0  0  0  0
   94.6630   98.8210  102.7800 C   0  0  0  0  0  0  0  0  0  0  0  0
   94.1690   98.9570  101.4870 C   0  0  0  0  0  0  0  0  0  0  0  0
   93.3110   97.6580  100.7540 Cl  0  0  0  0  0  0  0  0  0  0  0  0
  100.2530  103.1550  107.8750 C   0  0  0  0  0  0  0  0  0  0  0  0
   99.9640  101.6580  107.7150 C   0  0  0  0  0  0  0  0  0  0  0  0
  101.1690  100.8610  107.2130 C   0  0  0  0  0  0  0  0  0  0  0  0
  101.3590  101.0670  105.7780 N   0  0  0  0  0  0  0  0  0  0  0  0
  101.0320  100.0920  104.8790 C   0  0  0  0  0  0  0  0  0  0  0  0
  100.6360   98.9160  105.2280 N   0  0  0  0  0  0  0  0  0  0  0  0
  101.1920  100.5000  103.5910 N   0  0  0  0  0  0  0  0  0  0  0  0
  100.6520  100.0910  102.4030 C   0  0  0  0  0  0  0  0  0  0  0  0
   99.5440   99.4290  102.3390 N   0  0  0  0  0  0  0  0  0  0  0  0
  101.4200  100.4750  101.3330 N   0  0  0  0  0  0  0  0  0  0  0  0
  101.0490  101.9920  105.4960 H   0  0  0  0  0  0  0  0  0  0  0  0
  100.5130   98.3440  104.3850 H   0  0  0  0  0  0  0  0  0  0  0  0
  101.8230  101.2800  103.5080 H   0  0  0  0  0  0  0  0  0  0  0  0
   99.1590   99.3300  103.2840 H   0  0  0  0  0  0  0  0  0  0  0  0
  102.4160  100.4420  101.5020 H   0  0  0  0  0  0  0  0  0  0  0  0
  101.1120  100.3720   99.9580 C   0  0  0  0  0  0  0  0  0  0  0  0
   99.8890   99.8910   99.4720 C   0  0  0  0  0  0  0  0  0  0  0  0
  102.0370  100.8710   99.0220 C   0  0  0  0  0  0  0  0  0  0  0  0
   99.6150   99.8560   98.1000 C   0  0  0  0  0  0  0  0  0  0  0  0
  101.7650  100.8450   97.6490 C   0  0  0  0  0  0  0  0  0  0  0  0
  100.5550  100.3320   97.1940 C   0  0  0  0  0  0  0  0  0  0  0  0
  100.2160  100.2930   95.5070 Cl  0  0  0  0  0  0  0  0  0  0  0  0
  2  1  1  0  0  0  0
  3  2  1  0  0  0  0
  4  3  1  0  0  0  0
  5 11  1  0  0  0  0
  6  4  1  0  0  0  0
  6  5  2  0  0  0  0
  7 13  1  0  0  0  0
  7  6  1  0  0  0  0
  8  7  1  0  0  0  0
  9  8  2  0  0  0  0
 10  8  1  0  0  0  0
 12  4  1  0  0  0  0
 14  9  1  0  0  0  0
 15 10  1  0  0  0  0
 16 10  1  0  0  0  0
 16 18  1  0  0  0  0
 17 16  2  0  0  0  0
 19 17  1  0  0  0  0
 19 21  2  0  0  0  0
 20 18  2  0  0  0  0
 21 20  1  0  0  0  0
 22 21  1  0  0  0  0
 23  1  1  0  0  0  0
 24 23  1  0  0  0  0
 25 24  1  0  0  0  0
 26 25  1  0  0  0  0
 27 28  2  0  0  0  0
 27 26  1  0  0  0  0
 29 27  1  0  0  0  0
 30 29  1  0  0  0  0
 31 30  2  0  0  0  0
 31 36  1  0  0  0  0
 32 37  1  0  0  0  0
 32 30  1  0  0  0  0
 33 26  1  0  0  0  0
 34 28  1  0  0  0  0
 35 29  1  0  0  0  0
 38 32  1  0  0  0  0
 39 38  1  0  0  0  0
 40 38  2  0  0  0  0
 41 39  2  0  0  0  0
 42 40  1  0  0  0  0
 43 42  2  0  0  0  0
 43 41  1  0  0  0  0
 44 43  1  0  0  0  0
M  END
>  <minimizedAffinity>
-7.34239483

>  <CNNscore>
0.382618695

>  <CNNaffinity>
6.85601425

$$$$
