
 OpenBabel07312621583D

 29 31  0  0  1  0  0  0  0  0999 V2000
   99.4110  106.0510  106.6660 C   0  0  0  0  0  0  0  0  0  0  0  0
  100.2870  107.0800  106.2970 C   0  0  0  0  0  3  0  0  0  0  0  0
  101.1530  106.9210  105.2110 C   0  0  0  0  0  3  0  0  0  0  0  0
  101.1740  105.7300  104.4780 C   0  0  0  0  0  0  0  0  0  0  0  0
  100.3200  104.6940  104.8480 C   0  0  0  0  0  3  0  0  0  0  0  0
   99.4500  104.8520  105.9350 C   0  0  0  0  0  3  0  0  0  0  0  0
   98.4740  106.1680  107.8560 C   0  0  2  0  0  3  0  0  0  0  0  0
   99.1040  105.6950  109.1700 C   0  0  0  0  0  1  0  0  0  0  0  0
   97.2460  105.4460  107.5700 N   0  0  0  0  0  0  0  0  0  0  0  0
   97.0680  104.1330  107.9680 C   0  0  0  0  0  0  0  0  0  0  0  0
   97.9600  103.4770  108.5010 O   0  0  0  0  0  0  0  0  0  0  0  0
   96.4440  105.9840  107.2690 H   0  0  0  0  0  0  0  0  0  0  0  0
   95.6870  103.5720  107.6230 C   0  0  0  0  0  2  0  0  0  0  0  0
   95.7280  102.8420  106.3710 N   0  0  0  0  0  0  0  0  0  0  0  0
   95.8020  101.4820  106.4610 N   0  0  0  0  0  0  0  0  0  0  0  0
   95.6250  103.5370  105.1840 C   0  0  0  0  0  0  0  0  0  0  0  0
   95.8080  100.7600  105.4410 N   0  0  0  0  0  0  0  0  0  0  0  0
   95.6040  102.7120  103.9800 C   0  0  0  0  0  0  0  0  0  0  0  0
   95.5590  104.7600  105.1000 O   0  0  0  0  0  0  0  0  0  0  0  0
   95.6960  101.3420  104.1730 C   0  0  0  0  0  0  0  0  0  0  0  0
   95.4940  103.2710  102.7010 C   0  0  0  0  0  3  0  0  0  0  0  0
   95.6770  100.5120  103.0460 C   0  0  0  0  0  3  0  0  0  0  0  0
   95.4770  102.4330  101.5880 C   0  0  0  0  0  3  0  0  0  0  0  0
   95.5680  101.0520  101.7600 C   0  0  0  0  0  3  0  0  0  0  0  0
  102.0680  105.7190  103.4460 O   0  0  0  0  0  0  0  0  0  0  0  0
  102.9640  104.6250  103.3610 C   0  0  0  0  0  0  0  0  0  0  0  0
  103.7470  104.5470  104.4570 F   0  0  0  0  0  0  0  0  0  0  0  0
  103.7370  104.7150  102.2590 F   0  0  0  0  0  0  0  0  0  0  0  0
  102.2450  103.4830  103.2770 F   0  0  0  0  0  0  0  0  0  0  0  0
  1  7  1  0  0  0  0
  2  1  1  0  0  0  0
  3  2  2  0  0  0  0
  4  5  2  0  0  0  0
  4  3  1  0  0  0  0
  5  6  1  0  0  0  0
  6  1  2  0  0  0  0
  7  8  1  1  0  0  0
  9  7  1  0  0  0  0
  9 10  1  0  0  0  0
 10 11  2  0  0  0  0
 12  9  1  0  0  0  0
 13 10  1  0  0  0  0
 14 15  1  0  0  0  0
 14 13  1  0  0  0  0
 16 14  1  0  0  0  0
 17 15  2  0  0  0  0
 18 20  1  0  0  0  0
 18 16  1  0  0  0  0
 19 16  2  0  0  0  0
 20 17  1  0  0  0  0
 21 18  2  0  0  0  0
 22 20  2  0  0  0  0
 23 24  2  0  0  0  0
 23 21  1  0  0  0  0
 24 22  1  0  0  0  0
 25  4  1  0  0  0  0
 26 25  1  0  0  0  0
 26 27  1  0  0  0  0
 28 26  1  0  0  0  0
 29 26  1  0  0  0  0
M  END
>  <minimizedAffinity>
-8.41140842

>  <CNNscore>
0.586348951

>  <CNNaffinity>
6.14999056

$$$$
