
 OpenBabel07312617363D

 30 33  0  0  0  0  0  0  0  0999 V2000
   98.6720   98.4020  102.9730 C   0  0  0  0  0  0  0  0  0  0  0  0
   98.0170   97.3730  103.1050 O   0  0  0  0  0  0  0  0  0  0  0  0
   98.2080   99.6300  102.5450 N   0  0  0  0  0  0  0  0  0  0  0  0
   98.8370  100.4300  102.6020 H   0  0  0  0  0  0  0  0  0  0  0  0
  100.1490   98.4090  103.3060 C   0  0  0  0  0  2  0  0  0  0  0  0
  100.6370   99.7470  103.5670 N   0  0  0  0  0  0  0  0  0  0  0  0
  102.5130  100.3310  106.6880 N   0  0  0  0  0  0  0  0  0  0  0  0
  101.8990   99.4840  105.7640 C   0  0  0  0  0  0  0  0  0  0  0  0
  102.7260  101.7150  106.5090 C   0  0  0  0  0  0  0  0  0  0  0  0
  101.8560   98.2590  105.8610 O   0  0  0  0  0  0  0  0  0  0  0  0
  101.3470  100.1770  104.6530 C   0  0  0  0  0  0  0  0  0  0  0  0
  102.1450  102.3080  105.3880 N   0  0  0  0  0  0  0  0  0  0  0  0
  103.4070  102.3610  107.3090 O   0  0  0  0  0  0  0  0  0  0  0  0
  101.4780  101.5220  104.4790 C   0  0  0  0  0  0  0  0  0  0  0  0
  100.9000  101.9420  103.3230 N   0  0  0  0  0  0  0  0  0  0  0  0
  100.4050  100.8470  102.7790 C   0  0  0  0  0  3  0  0  0  0  0  0
  103.1090   99.7270  107.8620 C   0  0  0  0  0  1  0  0  0  0  0  0
  102.3290  103.7250  105.1370 C   0  0  0  0  0  1  0  0  0  0  0  0
   96.8930   99.8940  102.1410 C   0  0  0  0  0  0  0  0  0  0  0  0
   96.5730  101.2040  101.8140 C   0  0  0  0  0  3  0  0  0  0  0  0
   95.9650   98.9300  102.0490 N   0  0  0  0  0  0  0  0  0  0  0  0
   95.2750  101.5070  101.3950 C   0  0  0  0  0  3  0  0  0  0  0  0
   94.6800   99.2300  101.6280 N   0  0  0  0  0  0  0  0  0  0  0  0
   94.3280  100.4950  101.3090 C   0  0  0  0  0  0  0  0  0  0  0  0
   92.9370  100.7020  100.8640 C   0  0  0  0  0  0  0  0  0  0  0  0
   92.3420  101.9760  100.9360 C   0  0  0  0  0  3  0  0  0  0  0  0
   92.1510   99.6530  100.3490 C   0  0  0  0  0  3  0  0  0  0  0  0
   91.0210  102.1900  100.5310 C   0  0  0  0  0  3  0  0  0  0  0  0
   90.8290   99.8660   99.9410 C   0  0  0  0  0  3  0  0  0  0  0  0
   90.2640  101.1330  100.0360 C   0  0  0  0  0  3  0  0  0  0  0  0
  1  2  2  0  0  0  0
  1  5  1  0  0  0  0
  3  4  1  0  0  0  0
  3  1  1  0  0  0  0
  5  6  1  0  0  0  0
  6 11  1  0  0  0  0
  7 17  1  0  0  0  0
  8 10  2  0  0  0  0
  8  7  1  0  0  0  0
  9  7  1  0  0  0  0
  9 13  2  0  0  0  0
 11  8  1  0  0  0  0
 12  9  1  0  0  0  0
 14 11  2  0  0  0  0
 14 12  1  0  0  0  0
 15 14  1  0  0  0  0
 16 15  2  0  0  0  0
 16  6  1  0  0  0  0
 18 12  1  0  0  0  0
 19  3  1  0  0  0  0
 20 19  2  0  0  0  0
 21 19  1  0  0  0  0
 22 20  1  0  0  0  0
 23 21  2  0  0  0  0
 24 22  2  0  0  0  0
 24 23  1  0  0  0  0
 25 26  1  0  0  0  0
 25 24  1  0  0  0  0
 27 25  2  0  0  0  0
 28 26  2  0  0  0  0
 29 30  2  0  0  0  0
 29 27  1  0  0  0  0
 30 28  1  0  0  0  0
M  END
>  <minimizedAffinity>
-7.97804546

>  <CNNscore>
0.654345632

>  <CNNaffinity>
6.35202217

$$$$
