
 OpenBabel08012601373D

 33 36  0  0  1  0  0  0  0  0999 V2000
  102.4630   99.0720  106.8700 N   0  0  0  0  0  0  0  0  0  0  0  0
  101.5550  100.0600  107.2210 C   0  0  0  0  0  3  0  0  0  0  0  0
  100.8030  100.2530  106.0980 C   0  0  0  0  0  0  0  0  0  0  0  0
  101.2970   99.3670  105.1550 C   0  0  0  0  0  0  0  0  0  0  0  0
  102.3010   98.6110  105.5830 N   0  0  0  0  0  0  0  0  0  0  0  0
  100.5580   99.4680  103.8840 C   0  0  0  0  0  2  0  0  0  0  0  0
   99.8000  100.7570  104.0800 N   0  0  2  0  0  0  0  0  0  0  0  0
   99.6870  101.0350  105.5570 C   0  0  0  0  0  2  0  0  0  0  0  0
  103.6130   98.4650  107.9970 S   0  0  0  0  0  0  0  0  0  0  0  0
  104.2810   99.6470  108.5140 O   0  0  0  0  0  0  0  0  0  0  0  0
  104.3430   97.4430  107.2670 O   0  0  0  0  0  0  0  0  0  0  0  0
  102.7070   97.6950  109.3090 C   0  0  0  0  0  1  0  0  0  0  0  0
   98.5210  100.8330  103.3570 C   0  0  2  0  0  3  0  0  0  0  0  0
   97.3990  101.4900  104.1950 C   0  0  0  0  0  2  0  0  0  0  0  0
   98.0180   99.4710  102.7950 C   0  0  2  0  0  3  0  0  0  0  0  0
   96.0930  101.6010  103.3900 C   0  0  1  0  0  3  0  0  0  0  0  0
   96.8220   99.6870  102.0090 O   0  0  0  0  0  0  0  0  0  0  0  0
   95.7220  100.2360  102.7420 C   0  0  2  0  0  3  0  0  0  0  0  0
   97.8750   98.3380  103.8290 C   0  0  0  0  0  0  0  0  0  0  0  0
   96.7200   98.4030  104.5260 F   0  0  0  0  0  0  0  0  0  0  0  0
   98.8920   98.3250  104.7180 F   0  0  0  0  0  0  0  0  0  0  0  0
   97.8910   97.1310  103.2090 F   0  0  0  0  0  0  0  0  0  0  0  0
   95.0500  102.1550  104.2670 N   0  0  0  0  0  0  0  0  0  0  0  0
   94.8210  101.4960  105.0110 H   0  0  0  0  0  0  0  0  0  0  0  0
   94.1880  102.2910  103.7350 H   0  0  0  0  0  0  0  0  0  0  0  0
   94.5550  100.3300  101.7800 C   0  0  0  0  0  0  0  0  0  0  0  0
   93.7030   99.2300  101.5910 C   0  0  0  0  0  3  0  0  0  0  0  0
   94.2990  101.4970  101.0490 C   0  0  0  0  0  0  0  0  0  0  0  0
   92.6320   99.3200  100.7040 C   0  0  0  0  0  0  0  0  0  0  0  0
   93.2260  101.5830  100.1630 C   0  0  0  0  0  3  0  0  0  0  0  0
   92.3840  100.4860   99.9890 C   0  0  0  0  0  3  0  0  0  0  0  0
   95.0910  102.5690  101.1900 F   0  0  0  0  0  0  0  0  0  0  0  0
   91.8260   98.2630  100.5390 F   0  0  0  0  0  0  0  0  0  0  0  0
  1  2  1  0  0  0  0
  1  9  1  0  0  0  0
  3  2  2  0  0  0  0
  4  5  2  0  0  0  0
  4  3  1  0  0  0  0
  5  1  1  0  0  0  0
  6  4  1  0  0  0  0
  7  6  1  1  0  0  0
  7  8  1  0  0  0  0
  8  3  1  0  0  0  0
  9 10  2  0  0  0  0
  9 12  1  0  0  0  0
 11  9  2  0  0  0  0
 13  7  1  0  0  0  0
 13 14  1  1  0  0  0
 15 13  1  0  0  0  0
 15 19  1  1  0  0  0
 16 14  1  0  0  0  0
 16 23  1  1  0  0  0
 17 18  1  0  0  0  0
 17 15  1  0  0  0  0
 18 26  1  6  0  0  0
 18 16  1  0  0  0  0
 19 20  1  0  0  0  0
 19 21  1  0  0  0  0
 22 19  1  0  0  0  0
 23 24  1  0  0  0  0
 25 23  1  0  0  0  0
 27 26  1  0  0  0  0
 28 32  1  0  0  0  0
 28 26  2  0  0  0  0
 29 27  2  0  0  0  0
 30 28  1  0  0  0  0
 31 30  2  0  0  0  0
 31 29  1  0  0  0  0
 33 29  1  0  0  0  0
M  END
>  <minimizedAffinity>
-8.64928913

>  <CNNscore>
0.847713172

>  <CNNaffinity>
7.39851952

$$$$
