
 OpenBabel07312612303D

 43 44  0  0  1  0  0  0  0  0999 V2000
   99.0150  107.0670  107.3760 C   0  0  0  0  0  0  0  0  0  0  0  0
   97.9730  105.9400  107.4030 C   0  0  0  0  0  0  0  0  0  0  0  0
   98.3230  104.8170  108.3910 C   0  0  0  0  0  0  0  0  0  0  0  0
   97.7760  103.4510  108.0210 C   0  0  0  0  0  0  0  0  0  0  0  0
   97.9950  102.9610  106.7840 C   0  0  0  0  0  0  0  0  0  0  0  0
   97.0460  102.7260  109.1170 C   0  0  0  0  0  0  0  0  0  0  0  0
   97.5660  101.6420  106.1930 C   0  0  0  0  0  0  0  0  0  0  0  0
   96.6530  101.7780  104.9840 C   0  0  0  0  0  0  0  0  0  0  0  0
   96.1530  103.0410  104.5810 C   0  0  0  0  0  0  0  0  0  0  0  0
   96.3060  100.6330  104.2300 C   0  0  0  0  0  0  0  0  0  0  0  0
   95.3990  103.1320  103.3950 C   0  0  0  0  0  0  0  0  0  0  0  0
   95.5420  100.7220  103.0390 C   0  0  0  0  0  0  0  0  0  0  0  0
   95.0770  101.9930  102.6210 C   0  0  0  0  0  0  0  0  0  0  0  0
   95.2400   99.6040  102.2270 C   0  0  0  0  0  0  0  0  0  0  0  0
   94.3100  102.0790  101.4370 C   0  0  0  0  0  0  0  0  0  0  0  0
   94.4830   99.7150  101.0600 C   0  0  0  0  0  0  0  0  0  0  0  0
   94.0140  100.9570  100.6650 C   0  0  0  0  0  0  0  0  0  0  0  0
   96.4520  104.2870  105.3770 C   0  0  0  0  0  0  0  0  0  0  0  0
   96.8430   99.4250  104.6250 O   0  0  0  0  0  0  0  0  0  0  0  0
   98.2340   98.8450  104.0230 P   0  0  2  0  0  0  0  0  0  0  0  0
   97.9650   97.7660  103.0040 O   0  0  0  0  0  0  0  0  0  0  0  0
   99.3580   98.7490  105.0130 O   0  0  0  0  0  0  0  0  0  0  0  0
   98.5850  100.0760  103.0320 O   0  0  0  0  0  0  0  0  0  0  0  0
   98.3970   99.6590  102.1730 H   0  0  0  0  0  0  0  0  0  0  0  0
   94.8850  104.3570  103.0300 O   0  0  0  0  0  0  0  0  0  0  0  0
   95.7330  105.3960  102.1180 P   0  0  1  0  0  0  0  0  0  0  0  0
   96.7590  106.1910  102.8750 O   0  0  0  0  0  0  0  0  0  0  0  0
   96.0010  104.8130  100.7510 O   0  0  0  0  0  0  0  0  0  0  0  0
   94.5300  106.4170  101.7530 O   0  0  0  0  0  0  0  0  0  0  0  0
   94.3870  106.1900  100.8170 H   0  0  0  0  0  0  0  0  0  0  0  0
  100.1990  106.7910  106.4280 C   0  0  2  0  0  0  0  0  0  0  0  0
  100.9400  108.0800  106.0450 C   0  0  0  0  0  0  0  0  0  0  0  0
   99.7440  106.0800  105.1340 C   0  0  0  0  0  0  0  0  0  0  0  0
  100.7060  105.0420  104.5450 C   0  0  0  0  0  0  0  0  0  0  0  0
  101.0900  103.9370  105.5340 C   0  0  0  0  0  0  0  0  0  0  0  0
  101.9300  102.8110  104.9000 C   0  0  2  0  0  0  0  0  0  0  0  0
  101.2340  102.2970  103.6350 C   0  0  0  0  0  0  0  0  0  0  0  0
  102.2770  101.6440  105.8510 C   0  0  0  0  0  0  0  0  0  0  0  0
  102.2210  101.9870  107.3450 C   0  0  0  0  0  0  0  0  0  0  0  0
  101.9380  100.7610  108.2250 C   0  0  0  0  0  0  0  0  0  0  0  0
  103.0390   99.6820  108.1910 C   0  0  0  0  0  0  0  0  0  0  0  0
  102.6770   98.6090  107.1610 C   0  0  0  0  0  0  0  0  0  0  0  0
  103.2860   99.0300  109.5490 C   0  0  0  0  0  0  0  0  0  0  0  0
  1  2  1  0  0  0  0
  2  3  1  0  0  0  0
  4  3  1  0  0  0  0
  4  6  1  0  0  0  0
  5  4  2  0  0  0  0
  7  5  1  0  0  0  0
  8  7  1  0  0  0  0
  9  8  1  0  0  0  0
  9 18  1  0  0  0  0
 10 19  1  0  0  0  0
 10  8  2  0  0  0  0
 11  9  2  0  0  0  0
 12 10  1  0  0  0  0
 13 12  1  0  0  0  0
 13 11  1  0  0  0  0
 14 12  2  0  0  0  0
 15 13  2  0  0  0  0
 16 14  1  0  0  0  0
 17 16  2  0  0  0  0
 17 15  1  0  0  0  0
 20 21  2  6  0  0  0
 20 19  1  0  0  0  0
 20 22  1  0  0  0  0
 23 20  1  0  0  0  0
 24 23  1  0  0  0  0
 25 11  1  0  0  0  0
 26 28  2  6  0  0  0
 26 27  1  0  0  0  0
 26 25  1  0  0  0  0
 29 26  1  0  0  0  0
 30 29  1  0  0  0  0
 31 32  1  6  0  0  0
 31  1  1  0  0  0  0
 33 31  1  0  0  0  0
 34 33  1  0  0  0  0
 34 35  1  0  0  0  0
 36 37  1  6  0  0  0
 36 35  1  0  0  0  0
 36 38  1  0  0  0  0
 38 39  1  0  0  0  0
 39 40  1  0  0  0  0
 41 40  1  0  0  0  0
 41 43  1  0  0  0  0
 42 41  1  0  0  0  0
M  END
>  <minimizedAffinity>
-7.60305357

>  <CNNscore>
0.283941954

>  <CNNaffinity>
7.13161659

$$$$
