
 OpenBabel07312613523D

 32 34  0  0  0  0  0  0  0  0999 V2000
   99.0570  101.6060  104.4530 C   0  0  0  0  0  2  0  0  0  0  0  0
  100.4410  101.0940  104.2510 N   0  0  0  0  0  0  0  0  0  0  0  0
  101.0370  100.6570  105.5420 C   0  0  0  0  0  3  0  0  0  0  0  0
  103.1760   99.6420  107.2690 N   0  0  0  0  0  0  0  0  0  0  0  0
  101.9700   98.8360  107.0270 C   0  0  0  0  0  2  0  0  0  0  0  0
  102.8600  101.0770  107.2490 C   0  0  0  0  0  2  0  0  0  0  0  0
  101.3550   99.1580  105.6620 C   0  0  0  0  0  2  0  0  0  0  0  0
  102.2820  101.4910  105.8930 C   0  0  0  0  0  2  0  0  0  0  0  0
  103.9130   99.1910  108.4680 C   0  0  0  0  0  3  0  0  0  0  0  0
  105.0470   98.1910  108.2080 C   0  0  0  0  0  1  0  0  0  0  0  0
  102.9430   98.6260  109.5160 C   0  0  0  0  0  1  0  0  0  0  0  0
  100.4270  100.0350  103.2240 C   0  0  0  0  0  1  0  0  0  0  0  0
   97.8880  100.5970  104.2860 C   0  0  0  0  0  2  0  0  0  0  0  0
   96.8620  100.7200  105.3410 N   0  0  0  0  0  0  0  0  0  0  0  0
   95.5350  100.2560  104.9010 C   0  0  0  0  0  2  0  0  0  0  0  0
   95.0880   99.0470  105.7080 C   0  0  0  0  0  1  0  0  0  0  0  0
   96.8390  101.9570  106.0080 C   0  0  0  0  0  0  0  0  0  0  0  0
   95.7110  102.3020  106.7630 C   0  0  0  0  0  3  0  0  0  0  0  0
   97.9120  102.7760  105.9620 N   0  0  0  0  0  0  0  0  0  0  0  0
   95.6570  103.5150  107.4490 C   0  0  0  0  0  3  0  0  0  0  0  0
   97.8430  103.9550  106.6490 C   0  0  0  0  0  0  0  0  0  0  0  0
   96.7460  104.3680  107.3890 C   0  0  0  0  0  3  0  0  0  0  0  0
   99.0670  104.8220  106.5860 C   0  0  0  0  0  0  0  0  0  0  0  0
   99.4160  105.4680  107.5680 O   0  0  0  0  0  0  0  0  0  0  0  0
   99.6960  104.7720  105.3560 N   0  0  0  0  0  0  0  0  0  0  0  0
   99.2230  104.1730  104.6810 H   0  0  0  0  0  0  0  0  0  0  0  0
  100.8820  105.4160  104.9600 C   0  0  0  0  0  0  0  0  0  0  0  0
  101.2200  106.7130  105.3330 C   0  0  0  0  0  3  0  0  0  0  0  0
  101.7630  104.6990  104.1510 C   0  0  0  0  0  3  0  0  0  0  0  0
  102.4230  107.2360  104.8850 C   0  0  0  0  0  3  0  0  0  0  0  0
  102.9420  105.3090  103.7540 C   0  0  0  0  0  3  0  0  0  0  0  0
  103.2940  106.5640  104.1030 N   0  0  0  0  0  0  0  0  0  0  0  0
  2  1  1  0  0  0  0
  2  3  1  0  0  0  0
  3  7  1  0  0  0  0
  3  8  1  0  0  0  0
  4  9  1  0  0  0  0
  5  4  1  0  0  0  0
  6  4  1  0  0  0  0
  7  5  1  0  0  0  0
  8  6  1  0  0  0  0
  9 11  1  0  0  0  0
 10  9  1  0  0  0  0
 12  2  1  0  0  0  0
 13  1  1  0  0  0  0
 13 14  1  0  0  0  0
 14 17  1  0  0  0  0
 15 14  1  0  0  0  0
 15 16  1  0  0  0  0
 17 18  1  0  0  0  0
 18 20  2  0  0  0  0
 19 17  2  0  0  0  0
 19 21  1  0  0  0  0
 21 22  2  0  0  0  0
 22 20  1  0  0  0  0
 23 21  1  0  0  0  0
 23 24  2  0  0  0  0
 25 23  1  0  0  0  0
 26 25  1  0  0  0  0
 27 28  1  0  0  0  0
 27 25  1  0  0  0  0
 29 27  2  0  0  0  0
 30 28  2  0  0  0  0
 31 32  2  0  0  0  0
 31 29  1  0  0  0  0
 32 30  1  0  0  0  0
M  END
>  <minimizedAffinity>
-7.64535952

>  <CNNscore>
0.717605531

>  <CNNaffinity>
7.64958811

$$$$
