
 OpenBabel07302621503D

 36 36  0  0  1  0  0  0  0  0999 V2000
   98.6590  101.9570  104.0890 C   0  0  0  0  0  0  0  0  0  0  0  0
  100.1790  101.7670  104.1060 C   0  0  0  0  0  0  0  0  0  0  0  0
  100.6840  100.5020  104.8070 C   0  0  0  0  0  0  0  0  0  0  0  0
  102.0790  100.5990  105.4320 C   0  0  0  0  0  0  0  0  0  0  0  0
  102.2730  101.8560  106.2810 C   0  0  0  0  0  0  0  0  0  0  0  0
  102.6710  101.4900  107.7120 C   0  0  0  0  0  0  0  0  0  0  0  0
  103.2680  100.0890  107.8410 C   0  0  0  0  0  0  0  0  0  0  0  0
  102.2830   98.9430  108.1060 C   0  0  0  0  0  0  0  0  0  0  0  0
  102.7030   97.9750  109.2190 C   0  0  0  0  0  0  0  0  0  0  0  0
  103.5630   98.6150  110.2990 C   0  0  0  0  0  0  0  0  0  0  0  0
   97.9770  101.9180  105.4590 C   0  0  0  0  0  0  0  0  0  0  0  0
   96.5510  101.3420  105.4870 C   0  0  1  0  0  0  0  0  0  0  0  0
   95.7480  101.8430  106.6960 C   0  0  0  0  0  0  0  0  0  0  0  0
   96.0440  103.3160  106.9740 C   0  0  2  0  0  0  0  0  0  0  0  0
   95.3730  104.1880  106.0170 O   0  0  0  0  0  0  0  0  0  0  0  0
   97.4150  103.8270  106.4820 C   0  0  1  0  0  0  0  0  0  0  0  0
   96.5450  104.7100  105.5710 C   0  0  0  0  0  0  0  0  0  0  0  0
   96.7130  105.5440  104.7120 O   0  0  0  0  0  0  0  0  0  0  0  0
   98.2730  104.5310  107.5270 C   0  0  0  0  0  0  0  0  0  0  0  0
   97.8180  105.9690  107.7980 C   0  0  0  0  0  0  0  0  0  0  0  0
   98.9640  106.9850  107.7850 C   0  0  0  0  0  0  0  0  0  0  0  0
   99.4570  107.3170  106.3730 C   0  0  0  0  0  0  0  0  0  0  0  0
  100.5770  108.3590  106.3510 C   0  0  0  0  0  0  0  0  0  0  0  0
  100.0170  109.7750  106.4120 C   0  0  0  0  0  0  0  0  0  0  0  0
   95.8890  101.8100  104.2910 O   0  0  0  0  0  0  0  0  0  0  0  0
   94.9920  100.9500  103.7190 C   0  0  0  0  0  0  0  0  0  0  0  0
   94.8490   99.7770  104.0450 O   0  0  0  0  0  0  0  0  0  0  0  0
   94.2780  101.5990  102.5200 C   0  0  2  0  0  0  0  0  0  0  0  0
   93.0640  100.7230  102.1650 C   0  0  0  0  0  0  0  0  0  0  0  0
   93.1860   99.9660  100.8250 C   0  0  0  0  0  0  0  0  0  0  0  0
   92.0710  100.4210   99.8800 C   0  0  0  0  0  0  0  0  0  0  0  0
   93.1250   98.4460  100.9880 C   0  0  0  0  0  0  0  0  0  0  0  0
   95.1910  101.7350  101.3860 N   0  0  0  0  0  0  0  0  0  0  0  0
   96.1210  100.7560  101.1230 C   0  0  0  0  0  0  0  0  0  0  0  0
   96.4050   99.8290  101.8680 O   0  0  0  0  0  0  0  0  0  0  0  0
   94.8560  102.2610  100.5870 H   0  0  0  0  0  0  0  0  0  0  0  0
  1  2  1  0  0  0  0
  1 11  1  0  0  0  0
  2  3  1  0  0  0  0
  3  4  1  0  0  0  0
  4  5  1  0  0  0  0
  5  6  1  0  0  0  0
  6  7  1  0  0  0  0
  7  8  1  0  0  0  0
  8  9  1  0  0  0  0
  9 10  1  0  0  0  0
 12 11  1  1  0  0  0
 12 13  1  0  0  0  0
 14 13  1  6  0  0  0
 15 14  1  0  0  0  0
 16 14  1  0  0  0  0
 16 19  1  1  0  0  0
 17 15  1  0  0  0  0
 17 16  1  0  0  0  0
 18 17  2  0  0  0  0
 19 20  1  0  0  0  0
 21 20  1  0  0  0  0
 22 21  1  0  0  0  0
 23 22  1  0  0  0  0
 23 24  1  0  0  0  0
 25 12  1  0  0  0  0
 26 27  2  0  0  0  0
 26 25  1  0  0  0  0
 28 29  1  6  0  0  0
 28 26  1  0  0  0  0
 30 32  1  0  0  0  0
 30 29  1  0  0  0  0
 31 30  1  0  0  0  0
 33 28  1  0  0  0  0
 34 33  1  0  0  0  0
 34 35  2  0  0  0  0
 36 33  1  0  0  0  0
M  END
>  <minimizedAffinity>
-7.28463221

>  <CNNscore>
0.863354266

>  <CNNaffinity>
7.76574326

$$$$
