
 OpenBabel07302619433D

 30 33  0  0  1  0  0  0  0  0999 V2000
   97.3290  103.1870  106.3850 C   0  0  1  0  0  0  0  0  0  0  0  0
   97.5670  103.3440  107.9010 C   0  0  0  0  0  0  0  0  0  0  0  0
   98.9480  103.9090  108.2540 C   0  0  0  0  0  0  0  0  0  0  0  0
  100.0530  103.3930  107.3360 C   0  0  0  0  0  0  0  0  0  0  0  0
   99.7090  103.5730  105.9230 N   0  0  0  0  0  0  0  0  0  0  0  0
   98.3520  104.0400  105.5940 C   0  0  0  0  0  0  0  0  0  0  0  0
   97.4340  101.7700  105.9800 N   0  0  0  0  0  0  0  0  0  0  0  0
   97.0400  101.1630  106.6930 H   0  0  0  0  0  0  0  0  0  0  0  0
   98.4320  101.5520  105.9150 H   0  0  0  0  0  0  0  0  0  0  0  0
  100.7460  104.0210  105.0840 C   0  0  0  0  0  0  0  0  0  0  0  0
  101.4480  103.0410  104.3290 C   0  0  0  0  0  0  0  0  0  0  0  0
  101.1320  105.3820  104.9440 C   0  0  0  0  0  0  0  0  0  0  0  0
  102.4910  103.4000  103.4630 C   0  0  0  0  0  0  0  0  0  0  0  0
  102.1870  105.7080  104.0630 C   0  0  0  0  0  0  0  0  0  0  0  0
  102.8590  104.7320  103.3300 C   0  0  0  0  0  0  0  0  0  0  0  0
  101.0930  101.6170  104.4200 C   0  0  0  0  0  0  0  0  0  0  0  0
  101.5780  100.7610  105.3260 C   0  0  0  0  0  0  0  0  0  0  0  0
  101.0840   99.1000  105.4020 S   0  0  0  0  0  0  0  0  0  0  0  0
  102.5660  101.0320  106.4090 C   0  0  0  0  0  0  0  0  0  0  0  0
  102.1090   98.7700  106.7790 C   0  0  0  0  0  0  0  0  0  0  0  0
  102.7910   99.8900  107.1220 N   0  0  0  0  0  0  0  0  0  0  0  0
  103.1100  102.0940  106.6600 O   0  0  0  0  0  0  0  0  0  0  0  0
  102.1840   97.6890  107.3390 O   0  0  0  0  0  0  0  0  0  0  0  0
  103.4250   99.8880  107.9030 H   0  0  0  0  0  0  0  0  0  0  0  0
  100.5100  106.5010  105.6710 C   0  0  0  0  0  0  0  0  0  0  0  0
   99.3640  106.3010  106.4560 C   0  0  0  0  0  0  0  0  0  0  0  0
  101.0930  107.7790  105.6580 C   0  0  0  0  0  0  0  0  0  0  0  0
   98.7940  107.3540  107.1750 C   0  0  0  0  0  0  0  0  0  0  0  0
  100.5230  108.8340  106.3740 C   0  0  0  0  0  0  0  0  0  0  0  0
   99.3720  108.6210  107.1310 C   0  0  0  0  0  0  0  0  0  0  0  0
  1  7  1  6  0  0  0
  1  2  1  0  0  0  0
  2  3  1  0  0  0  0
  4  3  1  0  0  0  0
  5  4  1  0  0  0  0
  6  5  1  0  0  0  0
  6  1  1  0  0  0  0
  7  8  1  0  0  0  0
  9  7  1  0  0  0  0
 10  5  1  0  0  0  0
 11 16  1  0  0  0  0
 11 10  2  0  0  0  0
 12 10  1  0  0  0  0
 12 25  1  0  0  0  0
 13 11  1  0  0  0  0
 14 12  2  0  0  0  0
 15 13  2  0  0  0  0
 15 14  1  0  0  0  0
 16 17  2  0  0  0  0
 17 18  1  0  0  0  0
 17 19  1  0  0  0  0
 18 20  1  0  0  0  0
 19 22  2  0  0  0  0
 19 21  1  0  0  0  0
 20 21  1  0  0  0  0
 20 23  2  0  0  0  0
 21 24  1  0  0  0  0
 25 26  1  0  0  0  0
 26 28  2  0  0  0  0
 27 25  2  0  0  0  0
 27 29  1  0  0  0  0
 29 30  2  0  0  0  0
 30 28  1  0  0  0  0
M  END
>  <minimizedAffinity>
-9.3146553

>  <CNNscore>
0.846072435

>  <CNNaffinity>
6.97217703

$$$$
