
 OpenBabel07302619423D

 36 39  0  0  0  0  0  0  0  0999 V2000
   99.3630   98.7540  104.5060 N   0  0  0  0  0  0  0  0  0  0  0  0
   98.7920   98.4180  103.1560 C   0  0  0  0  0  0  0  0  0  0  0  0
   97.2590   98.2700  103.1740 C   0  0  0  0  0  0  0  0  0  0  0  0
   96.6090   99.5060  103.6420 N   0  0  0  0  0  0  0  0  0  0  0  0
   97.3900  100.3380  104.5750 C   0  0  0  0  0  0  0  0  0  0  0  0
   98.3750   99.4760  105.3840 C   0  0  0  0  0  0  0  0  0  0  0  0
  100.8950   99.5080  104.4710 S   0  0  0  0  0  0  0  0  0  0  0  0
  101.2110   99.8170  103.0930 O   0  0  0  0  0  0  0  0  0  0  0  0
  101.7890   98.7050  105.2800 O   0  0  0  0  0  0  0  0  0  0  0  0
  100.5940  101.0440  105.3060 C   0  0  0  0  0  0  0  0  0  0  0  0
  100.1160  103.4470  106.6510 C   0  0  0  0  0  0  0  0  0  0  0  0
  100.3130  102.2670  107.3730 C   0  0  0  0  0  0  0  0  0  0  0  0
  100.1620  103.4110  105.2520 C   0  0  0  0  0  0  0  0  0  0  0  0
  100.5470  101.0630  106.7020 C   0  0  0  0  0  0  0  0  0  0  0  0
  100.3940  102.2140  104.5720 C   0  0  0  0  0  0  0  0  0  0  0  0
   99.8880  104.6890  107.1720 O   0  0  0  0  0  0  0  0  0  0  0  0
   98.7400  104.9000  108.0010 C   0  0  0  0  0  0  0  0  0  0  0  0
   98.2720  106.3330  107.7480 C   0  0  0  0  0  0  0  0  0  0  0  0
   99.1230  104.7310  109.4680 C   0  0  0  0  0  0  0  0  0  0  0  0
   95.4230   99.9550  103.0860 C   0  0  0  0  0  0  0  0  0  0  0  0
   94.3940   99.0800  102.7190 C   0  0  0  0  0  0  0  0  0  0  0  0
   95.1930  101.3180  102.8400 C   0  0  0  0  0  0  0  0  0  0  0  0
   93.2000   99.5410  102.1470 C   0  0  0  0  0  0  0  0  0  0  0  0
   93.9830  101.8000  102.3030 C   0  0  0  0  0  0  0  0  0  0  0  0
   92.9720  100.9060  101.9200 C   0  0  0  0  0  0  0  0  0  0  0  0
   93.8260  103.1420  102.0630 O   0  0  0  0  0  0  0  0  0  0  0  0
   95.0020  103.8270  101.6460 C   0  0  0  0  0  0  0  0  0  0  0  0
   95.4050  105.0940  102.3930 C   0  0  0  0  0  0  0  0  0  0  0  0
   95.4370  106.2130  101.8990 O   0  0  0  0  0  0  0  0  0  0  0  0
   95.7880  104.9110  103.6680 O   0  0  0  0  0  0  0  0  0  0  0  0
   95.9960  105.8080  104.0000 H   0  0  0  0  0  0  0  0  0  0  0  0
   91.6930  101.2930  101.3150 C   0  0  0  0  0  0  0  0  0  0  0  0
   90.9140  102.3190  101.6260 N   0  0  0  0  0  0  0  0  0  0  0  0
   91.1970  100.5210  100.2930 O   0  0  0  0  0  0  0  0  0  0  0  0
   89.8580  102.2170  100.7580 C   0  0  0  0  0  0  0  0  0  0  0  0
   90.0270  101.1240   99.9470 C   0  0  0  0  0  0  0  0  0  0  0  0
  1  6  1  0  0  0  0
  2  3  1  0  0  0  0
  2  1  1  0  0  0  0
  3  4  1  0  0  0  0
  4  5  1  0  0  0  0
  5  6  1  0  0  0  0
  7  1  1  0  0  0  0
  7  9  2  0  0  0  0
  7 10  1  0  0  0  0
  8  7  2  0  0  0  0
 10 14  1  0  0  0  0
 11 16  1  0  0  0  0
 11 12  1  0  0  0  0
 13 11  2  0  0  0  0
 14 12  2  0  0  0  0
 15 13  1  0  0  0  0
 15 10  2  0  0  0  0
 16 17  1  0  0  0  0
 17 19  1  0  0  0  0
 18 17  1  0  0  0  0
 20  4  1  0  0  0  0
 21 20  2  0  0  0  0
 22 20  1  0  0  0  0
 23 21  1  0  0  0  0
 24 22  2  0  0  0  0
 25 23  2  0  0  0  0
 25 24  1  0  0  0  0
 26 24  1  0  0  0  0
 27 26  1  0  0  0  0
 27 28  1  0  0  0  0
 28 30  1  0  0  0  0
 29 28  2  0  0  0  0
 30 31  1  0  0  0  0
 32 33  2  0  0  0  0
 32 25  1  0  0  0  0
 34 32  1  0  0  0  0
 35 33  1  0  0  0  0
 36 34  1  0  0  0  0
 36 35  2  0  0  0  0
M  END
>  <minimizedAffinity>
-7.6930275

>  <CNNscore>
0.436237007

>  <CNNaffinity>
6.48653269

$$$$
