
 OpenBabel07312622583D

 35 37  0  0  1  0  0  0  0  0999 V2000
   94.4030  100.2290  102.5840 C   0  0  2  0  0  3  0  0  0  0  0  0
   94.8060   98.8140  102.1940 C   0  0  0  0  0  1  0  0  0  0  0  0
   95.3760  100.8960  103.5260 C   0  0  0  0  0  0  0  0  0  0  0  0
   97.1330  102.1810  105.3400 C   0  0  0  0  0  0  0  0  0  0  0  0
   96.0950  101.3550  105.8050 C   0  0  0  0  0  3  0  0  0  0  0  0
   97.3020  102.3280  103.9580 C   0  0  0  0  0  3  0  0  0  0  0  0
   95.2280  100.7220  104.9100 C   0  0  0  0  0  3  0  0  0  0  0  0
   96.4380  101.6870  103.0730 C   0  0  0  0  0  0  0  0  0  0  0  0
   96.6520  101.8390  101.7600 F   0  0  0  0  0  0  0  0  0  0  0  0
   98.0110  102.8860  106.2810 C   0  0  0  0  0  0  0  0  0  0  0  0
   97.8440  104.2520  106.5890 C   0  0  0  0  0  0  0  0  0  0  0  0
   98.7030  104.9000  107.4850 C   0  0  0  0  0  0  0  0  0  0  0  0
   99.7340  104.1850  108.0950 C   0  0  0  0  0  3  0  0  0  0  0  0
   99.0530  102.1880  106.9130 C   0  0  0  0  0  3  0  0  0  0  0  0
   99.9080  102.8310  107.8110 C   0  0  0  0  0  3  0  0  0  0  0  0
   98.5510  106.5770  107.8680 Cl  0  0  0  0  0  0  0  0  0  0  0  0
   96.7650  105.0110  105.9430 C   0  0  0  0  0  0  0  0  0  0  0  0
   96.7300  105.2710  104.7540 O   0  0  0  0  0  0  0  0  0  0  0  0
   95.8470  105.3130  106.8870 O   0  0  0  0  0  0  0  0  0  0  0  0
   95.0740  104.1850  107.3090 C   0  0  0  0  0  1  0  0  0  0  0  0
   93.0540  100.2620  103.1200 N   0  0  0  0  0  0  0  0  0  0  0  0
   91.9580  100.0320  102.3260 C   0  0  0  0  0  0  0  0  0  0  0  0
   91.9870   99.8390  101.1180 O   0  0  0  0  0  0  0  0  0  0  0  0
   92.9200  100.2790  104.1330 H   0  0  0  0  0  0  0  0  0  0  0  0
   90.6390   99.9820  103.0600 C   0  0  0  0  0  0  0  0  0  0  0  0
   89.4940   99.2930  102.3440 C   0  0  0  0  0  2  0  0  0  0  0  0
   89.4560  100.7720  102.5240 C   0  0  0  0  0  2  0  0  0  0  0  0
   90.7600   99.7540  104.4720 N   0  0  0  0  0  0  0  0  0  0  0  0
   91.2100   98.5380  105.0030 C   0  0  0  0  0  0  0  0  0  0  0  0
   91.6530   97.6230  104.2990 O   0  0  0  0  0  0  0  0  0  0  0  0
   90.2640  100.4030  105.0830 H   0  0  0  0  0  0  0  0  0  0  0  0
   91.1900   98.5040  106.5380 C   0  0  0  0  0  0  0  0  0  0  0  0
   90.7280   99.6470  107.1080 F   0  0  0  0  0  0  0  0  0  0  0  0
   92.4390   98.2860  107.0480 F   0  0  0  0  0  0  0  0  0  0  0  0
   90.4160   97.4900  107.0030 F   0  0  0  0  0  0  0  0  0  0  0  0
  1  2  1  1  0  0  0
  1 21  1  0  0  0  0
  1  3  1  0  0  0  0
  3  7  1  0  0  0  0
  4  5  1  0  0  0  0
  4 10  1  0  0  0  0
  6  4  2  0  0  0  0
  7  5  2  0  0  0  0
  8  3  2  0  0  0  0
  8  6  1  0  0  0  0
  9  8  1  0  0  0  0
 10 11  2  0  0  0  0
 10 14  1  0  0  0  0
 11 12  1  0  0  0  0
 12 16  1  0  0  0  0
 12 13  2  0  0  0  0
 14 15  2  0  0  0  0
 15 13  1  0  0  0  0
 17 11  1  0  0  0  0
 17 19  1  0  0  0  0
 18 17  2  0  0  0  0
 19 20  1  0  0  0  0
 21 24  1  0  0  0  0
 22 25  1  0  0  0  0
 22 21  1  0  0  0  0
 23 22  2  0  0  0  0
 25 28  1  0  0  0  0
 26 27  1  0  0  0  0
 26 25  1  0  0  0  0
 27 25  1  0  0  0  0
 28 29  1  0  0  0  0
 28 31  1  0  0  0  0
 29 32  1  0  0  0  0
 30 29  2  0  0  0  0
 32 35  1  0  0  0  0
 32 34  1  0  0  0  0
 32 33  1  0  0  0  0
M  END
>  <minimizedAffinity>
-7.71443176

>  <CNNscore>
0.877446949

>  <CNNaffinity>
7.12983513

$$$$
