
 OpenBabel07312616013D

 32 34  0  0  1  0  0  0  0  0999 V2000
   96.7000   99.3980  103.3060 C   0  0  0  0  0  0  0  0  0  0  0  0
   97.5910  100.4400  103.6570 C   0  0  0  0  0  3  0  0  0  0  0  0
   98.8570   99.9280  103.4750 C   0  0  0  0  0  0  0  0  0  0  0  0
   98.6590   98.6510  103.0300 N   0  0  0  0  0  0  0  0  0  0  0  0
   97.3700   98.3050  102.9540 N   0  0  0  0  0  0  0  0  0  0  0  0
   99.3570   97.9610  102.7770 H   0  0  0  0  0  0  0  0  0  0  0  0
   95.3290   99.5210  103.3700 N   0  0  0  0  0  0  0  0  0  0  0  0
   94.4340   99.0370  102.4410 C   0  0  0  0  0  0  0  0  0  0  0  0
   94.7020   98.5310  101.3610 O   0  0  0  0  0  0  0  0  0  0  0  0
   94.9790  100.0870  104.1260 H   0  0  0  0  0  0  0  0  0  0  0  0
   93.0590   99.2480  102.8400 C   0  0  0  0  0  0  0  0  0  0  0  0
   91.0150   99.0860  103.7180 C   0  0  0  0  0  0  0  0  0  0  0  0
   92.2990   98.4920  103.7150 C   0  0  0  0  0  3  0  0  0  0  0  0
   90.9900  100.1840  102.9480 N   0  0  0  0  0  0  0  0  0  0  0  0
   92.2480  100.2950  102.4860 N   0  0  0  0  0  0  0  0  0  0  0  0
   92.6110  101.4850  101.7460 C   0  0  0  0  0  1  0  0  0  0  0  0
   89.7970   98.6290  104.4670 C   0  0  0  0  0  2  0  0  0  0  0  0
   89.8890   97.2800  104.9520 O   0  0  0  0  0  0  0  0  0  0  0  0
   89.5430   97.1610  106.3230 C   0  0  0  0  0  1  0  0  0  0  0  0
  100.2020  100.5360  103.6700 C   0  0  1  0  0  3  0  0  0  0  0  0
  100.2340  101.5780  104.7940 C   0  0  0  0  0  2  0  0  0  0  0  0
  101.2980   99.5100  104.0080 C   0  0  0  0  0  2  0  0  0  0  0  0
  101.6590  101.4970  105.3260 C   0  0  0  0  0  2  0  0  0  0  0  0
  101.9500   99.9990  105.3040 C   0  0  1  0  0  3  0  0  0  0  0  0
  101.3140   99.4050  106.4500 O   0  0  0  0  0  0  0  0  0  0  0  0
  102.1430   98.7220  107.2770 C   0  0  0  0  0  0  0  0  0  0  0  0
  101.9970   97.5590  107.6120 O   0  0  0  0  0  0  0  0  0  0  0  0
  103.1490   99.5430  107.6760 N   0  0  0  0  0  0  0  0  0  0  0  0
  103.0800  100.5090  107.3800 H   0  0  0  0  0  0  0  0  0  0  0  0
  104.1350   99.1590  108.6700 C   0  0  0  0  0  3  0  0  0  0  0  0
  103.4410   98.6080  109.9110 C   0  0  0  0  0  1  0  0  0  0  0  0
  105.1050   98.1370  108.0870 C   0  0  0  0  0  1  0  0  0  0  0  0
  1  7  1  0  0  0  0
  1  2  1  0  0  0  0
  3  2  2  0  0  0  0
  4  3  1  0  0  0  0
  5  4  1  0  0  0  0
  5  1  2  0  0  0  0
  6  4  1  0  0  0  0
  7 10  1  0  0  0  0
  8 11  1  0  0  0  0
  8  7  1  0  0  0  0
  9  8  2  0  0  0  0
 11 13  2  0  0  0  0
 12 17  1  0  0  0  0
 13 12  1  0  0  0  0
 14 12  2  0  0  0  0
 15 11  1  0  0  0  0
 15 14  1  0  0  0  0
 16 15  1  0  0  0  0
 17 18  1  0  0  0  0
 18 19  1  0  0  0  0
 20  3  1  1  0  0  0
 20 22  1  0  0  0  0
 20 21  1  0  0  0  0
 21 23  1  0  0  0  0
 22 24  1  0  0  0  0
 24 23  1  0  0  0  0
 24 25  1  1  0  0  0
 25 26  1  0  0  0  0
 26 27  2  0  0  0  0
 26 28  1  0  0  0  0
 28 30  1  0  0  0  0
 29 28  1  0  0  0  0
 30 31  1  0  0  0  0
 32 30  1  0  0  0  0
M  END
>  <minimizedAffinity>
-7.91150188

>  <CNNscore>
0.714252353

>  <CNNaffinity>
6.33782387

$$$$
