
 OpenBabel08012600263D

 44 46  0  0  1  0  0  0  0  0999 V2000
  100.0780   99.2950  103.0960 C   0  0  2  0  0  3  0  0  0  0  0  0
  100.4480  100.7690  102.7930 C   0  0  2  0  0  3  0  0  0  0  0  0
  101.6330  100.8090  101.8110 C   0  0  0  0  0  1  0  0  0  0  0  0
  100.7310  101.6310  104.0580 C   0  0  2  0  0  3  0  0  0  0  0  0
  101.7750  102.5830  103.8300 O   0  0  0  0  0  0  0  0  0  0  0  0
  101.6390  102.9350  102.9260 H   0  0  0  0  0  0  0  0  0  0  0  0
  101.1450  100.8310  105.2900 C   0  0  0  0  0  0  0  0  0  0  0  0
  100.7900  101.3040  106.5560 C   0  0  0  0  0  3  0  0  0  0  0  0
  101.8950   99.7080  105.1270 N   0  0  0  0  0  0  0  0  0  0  0  0
  101.1920  100.6000  107.6900 C   0  0  0  0  0  3  0  0  0  0  0  0
  102.2760   99.0470  106.2450 C   0  0  0  0  0  3  0  0  0  0  0  0
  101.9490   99.4500  107.5280 C   0  0  0  0  0  0  0  0  0  0  0  0
  102.3770   98.7180  108.5930 O   0  0  0  0  0  0  0  0  0  0  0  0
  102.0460   99.1330  109.4050 H   0  0  0  0  0  0  0  0  0  0  0  0
  100.7680   98.3510  102.1910 N   0  0  0  0  0  0  0  0  0  0  0  0
  100.5390   97.3920  102.4580 H   0  0  0  0  0  0  0  0  0  0  0  0
  101.7790   98.4470  102.3130 H   0  0  0  0  0  0  0  0  0  0  0  0
   98.5510   99.0440  103.0100 C   0  0  0  0  0  0  0  0  0  0  0  0
   98.0420   97.9290  103.0820 O   0  0  0  0  0  0  0  0  0  0  0  0
   97.7930  100.1900  102.8770 N   0  0  0  0  0  0  0  0  0  0  0  0
   98.2630  101.0020  102.4850 H   0  0  0  0  0  0  0  0  0  0  0  0
   96.3530  100.0950  102.5940 C   0  0  2  0  0  3  0  0  0  0  0  0
   96.1060  100.9700  101.3700 C   0  0  0  0  0  0  0  0  0  0  0  0
   95.9140  102.1780  101.3890 O   0  0  0  0  0  0  0  0  0  0  0  0
   96.1120  100.2950  100.2040 O   0  0  0  0  0  0  0  0  0  0  0  0
   95.9450  100.9820   99.5240 H   0  0  0  0  0  0  0  0  0  0  0  0
   95.4870  100.6150  103.7540 C   0  0  1  0  0  3  0  0  0  0  0  0
   94.2840  101.2160  103.2070 O   0  0  0  0  0  0  0  0  0  0  0  0
   95.0070   99.5080  104.6900 C   0  0  2  0  0  3  0  0  0  0  0  0
   93.1590  100.3530  103.4750 C   0  0  2  0  0  3  0  0  0  0  0  0
   93.7290   99.0330  104.0320 C   0  0  2  0  0  3  0  0  0  0  0  0
   94.6940  100.0670  105.9760 O   0  0  0  0  0  0  0  0  0  0  0  0
   94.0450   99.4460  106.3710 H   0  0  0  0  0  0  0  0  0  0  0  0
   92.3390  100.1630  102.2710 N   0  0  0  0  0  0  0  0  0  0  0  0
   92.8920  100.1580  101.0040 C   0  0  0  0  0  3  0  0  0  0  0  0
   90.9690  100.0220  102.4570 C   0  0  0  0  0  0  0  0  0  0  0  0
   92.1500   99.9990   99.9050 C   0  0  0  0  0  3  0  0  0  0  0  0
   90.2180   99.8860  101.3220 N   0  0  0  0  0  0  0  0  0  0  0  0
   90.4350   99.9950  103.5660 O   0  0  0  0  0  0  0  0  0  0  0  0
   90.6960   99.8370  100.0460 C   0  0  0  0  0  0  0  0  0  0  0  0
   89.9780   99.6680   99.0680 O   0  0  0  0  0  0  0  0  0  0  0  0
   89.2230   99.7690  101.4400 H   0  0  0  0  0  0  0  0  0  0  0  0
   92.9070   98.3840  105.0040 O   0  0  0  0  0  0  0  0  0  0  0  0
   91.9950   98.3540  104.6320 H   0  0  0  0  0  0  0  0  0  0  0  0
  1 18  1  6  0  0  0
  2  3  1  6  0  0  0
  2  1  1  0  0  0  0
  2  4  1  0  0  0  0
  4  5  1  6  0  0  0
  4  7  1  0  0  0  0
  6  5  1  0  0  0  0
  7  8  1  0  0  0  0
  8 10  2  0  0  0  0
  9  7  2  0  0  0  0
  9 11  1  0  0  0  0
 11 12  2  0  0  0  0
 12 10  1  0  0  0  0
 12 13  1  0  0  0  0
 13 14  1  0  0  0  0
 15 17  1  0  0  0  0
 15 16  1  0  0  0  0
 15  1  1  0  0  0  0
 18 19  2  0  0  0  0
 20 18  1  0  0  0  0
 21 20  1  0  0  0  0
 22 23  1  6  0  0  0
 22 20  1  0  0  0  0
 23 24  2  0  0  0  0
 25 23  1  0  0  0  0
 26 25  1  0  0  0  0
 27 22  1  6  0  0  0
 27 29  1  0  0  0  0
 28 30  1  0  0  0  0
 28 27  1  0  0  0  0
 29 32  1  1  0  0  0
 30 34  1  6  0  0  0
 30 31  1  0  0  0  0
 31 29  1  0  0  0  0
 31 43  1  1  0  0  0
 32 33  1  0  0  0  0
 34 36  1  0  0  0  0
 35 34  1  0  0  0  0
 36 39  2  0  0  0  0
 37 40  1  0  0  0  0
 37 35  2  0  0  0  0
 38 42  1  0  0  0  0
 38 36  1  0  0  0  0
 40 38  1  0  0  0  0
 41 40  2  0  0  0  0
 44 43  1  0  0  0  0
M  END
>  <minimizedAffinity>
-8.64333344

>  <CNNscore>
0.459098816

>  <CNNaffinity>
5.87764788

$$$$
