
 OpenBabel07312613543D

 33 34  0  0  1  0  0  0  0  0999 V2000
  101.5140  101.7720  106.4670 C   0  0  0  0  0  0  0  0  0  0  0  0
  102.4650  101.5610  107.4830 C   0  0  0  0  0  3  0  0  0  0  0  0
  103.0370  100.3050  107.6940 C   0  0  0  0  0  3  0  0  0  0  0  0
  102.6540   99.2340  106.9000 C   0  0  0  0  0  0  0  0  0  0  0  0
  101.6620   99.3950  105.9380 C   0  0  0  0  0  3  0  0  0  0  0  0
  101.1050  100.6610  105.6820 C   0  0  0  0  0  0  0  0  0  0  0  0
  100.9370  103.1250  106.2490 C   0  0  0  0  0  0  0  0  0  0  0  0
   99.8550  105.7260  105.7950 C   0  0  0  0  0  0  0  0  0  0  0  0
  100.8960  105.2430  105.0020 C   0  0  0  0  0  3  0  0  0  0  0  0
   99.3550  104.9100  106.8180 C   0  0  0  0  0  0  0  0  0  0  0  0
  101.4370  103.9590  105.2150 C   0  0  0  0  0  0  0  0  0  0  0  0
   99.9120  103.6440  107.0660 C   0  0  0  0  0  0  0  0  0  0  0  0
   99.2630  106.9540  105.6550 O   0  0  0  0  0  0  0  0  0  0  0  0
   99.9970  108.0910  106.0820 C   0  0  0  0  0  1  0  0  0  0  0  0
   98.3570  105.3830  107.6390 O   0  0  0  0  0  0  0  0  0  0  0  0
   98.9330  105.9910  108.7950 C   0  0  0  0  0  1  0  0  0  0  0  0
  102.5700  103.4810  104.3370 C   0  0  0  0  0  1  0  0  0  0  0  0
   99.4150  102.8890  108.1070 O   0  0  0  0  0  0  0  0  0  0  0  0
   98.0480  102.5580  107.8530 C   0  0  0  0  0  1  0  0  0  0  0  0
  100.0880  100.8690  104.5640 C   0  0  1  0  0  3  0  0  0  0  0  0
   99.1500  101.9630  104.8200 N   0  0  0  0  0  0  0  0  0  0  0  0
   97.9950  102.1190  104.0880 C   0  0  0  0  0  0  0  0  0  0  0  0
   97.6720  101.3950  103.1510 O   0  0  0  0  0  0  0  0  0  0  0  0
   99.2130  102.4350  105.7120 H   0  0  0  0  0  0  0  0  0  0  0  0
   97.1210  103.2530  104.5530 C   0  0  0  0  0  1  0  0  0  0  0  0
  100.7750  101.0900  103.2010 C   0  0  0  0  0  1  0  0  0  0  0  0
  103.3020   98.0460  107.0880 O   0  0  0  0  0  0  0  0  0  0  0  0
  104.6300   97.9440  107.9860 P   0  0  0  0  0  0  0  0  0  0  0  0
  105.4310   99.1860  108.2060 O   0  0  0  0  0  0  0  0  0  0  0  0
  104.1580   97.2410  109.3430 O   0  0  0  0  0  0  0  0  0  0  0  0
  103.6830   97.8620  109.9310 H   0  0  0  0  0  0  0  0  0  0  0  0
  105.4760   96.7700  107.3070 O   0  0  0  0  0  0  0  0  0  0  0  0
  106.3510   96.6910  107.7250 H   0  0  0  0  0  0  0  0  0  0  0  0
  1  2  1  0  0  0  0
  2  3  2  0  0  0  0
  4 27  1  0  0  0  0
  4  3  1  0  0  0  0
  5  4  2  0  0  0  0
  6  5  1  0  0  0  0
  6  1  2  0  0  0  0
  7  1  1  0  0  0  0
  7 12  1  0  0  0  0
  8 10  1  0  0  0  0
  9 11  1  0  0  0  0
  9  8  2  0  0  0  0
 10 12  2  0  0  0  0
 10 15  1  0  0  0  0
 11  7  2  0  0  0  0
 12 18  1  0  0  0  0
 13  8  1  0  0  0  0
 13 14  1  0  0  0  0
 15 16  1  0  0  0  0
 17 11  1  0  0  0  0
 19 18  1  0  0  0  0
 20 26  1  6  0  0  0
 20 21  1  0  0  0  0
 20  6  1  0  0  0  0
 21 24  1  0  0  0  0
 22 25  1  0  0  0  0
 22 21  1  0  0  0  0
 23 22  2  0  0  0  0
 27 28  1  0  0  0  0
 28 29  2  0  0  0  0
 28 30  1  0  0  0  0
 30 31  1  0  0  0  0
 32 33  1  0  0  0  0
 32 28  1  0  0  0  0
M  END
>  <minimizedAffinity>
-8.65392017

>  <CNNscore>
0.654630959

>  <CNNaffinity>
6.46446657

$$$$
