
 OpenBabel08012600073D

 32 36  0  0  1  0  0  0  0  0999 V2000
  100.1750  100.6510  103.6540 C   0  0  2  0  0  3  0  0  0  0  0  0
  100.3340   99.4300  104.6000 C   0  0  0  0  0  0  0  0  0  0  0  0
   99.6780   98.4710  104.9330 O   0  0  0  0  0  0  0  0  0  0  0  0
  101.4950   99.9290  105.1290 N   0  0  0  0  0  0  0  0  0  0  0  0
  101.3860  101.2170  104.4300 C   0  0  2  0  0  3  0  0  0  0  0  0
  101.0340  102.4250  105.7720 S   0  0  2  0  0  3  0  0  0  0  0  0
  101.9890  101.4000  106.9970 C   0  0  0  0  0  0  0  0  0  0  0  0
  103.4720  101.7760  106.8740 C   0  0  0  0  0  1  0  0  0  0  0  0
  101.4780  101.7230  108.4030 C   0  0  0  0  0  1  0  0  0  0  0  0
  101.6590   99.9520  106.5820 C   0  0  2  0  0  3  0  0  0  0  0  0
   98.9030  101.4070  103.7890 N   0  0  0  0  0  0  0  0  0  0  0  0
   98.7860  102.5040  104.6100 C   0  0  2  0  0  3  0  0  0  0  0  0
   99.7070  102.8690  105.3320 O   0  0  0  0  0  0  0  0  0  0  0  0
   98.0760  101.0730  103.3080 H   0  0  0  0  0  0  0  0  0  0  0  0
   97.4940  103.1460  104.5800 C   0  0  0  0  0  0  0  0  0  0  0  0
   96.4200  102.9780  103.7100 C   0  0  0  0  0  0  0  0  0  0  0  0
   95.4810  103.9460  104.1190 C   0  0  0  0  0  3  0  0  0  0  0  0
   95.9040  104.6720  105.1470 N   0  0  0  0  0  0  0  0  0  0  0  0
   97.1370  104.1820  105.4320 N   0  0  0  0  0  0  0  0  0  0  0  0
   96.2750  102.0570  102.5540 C   0  0  0  0  0  1  0  0  0  0  0  0
   97.8250  104.6780  106.5610 C   0  0  0  0  0  0  0  0  0  0  0  0
   97.5950  104.1400  107.8370 C   0  0  0  0  0  0  0  0  0  0  0  0
   98.7290  105.7420  106.4130 C   0  0  0  0  0  0  0  0  0  0  0  0
   98.2850  104.6480  108.9450 C   0  0  0  0  0  3  0  0  0  0  0  0
   99.4090  106.2420  107.5300 C   0  0  0  0  0  3  0  0  0  0  0  0
   99.1920  105.6950  108.7920 C   0  0  0  0  0  3  0  0  0  0  0  0
   96.3950  102.9340  108.1700 Cl  0  0  0  0  0  0  0  0  0  0  0  0
   99.1500  106.4340  104.8810 Cl  0  0  0  0  0  0  0  0  0  0  0  0
  102.7130   98.9390  107.0100 C   0  0  0  0  0  0  0  0  0  0  0  0
  103.4650   99.0130  107.9680 O   0  0  0  0  0  0  0  0  0  0  0  0
  102.7250   97.8410  106.2250 O   0  0  0  0  0  0  0  0  0  0  0  0
  103.4600   97.2990  106.5850 H   0  0  0  0  0  0  0  0  0  0  0  0
  1 11  1  0  0  0  0
  1  5  1  0  0  0  0
  1  2  1  1  0  0  0
  2  3  2  0  0  0  0
  2  4  1  0  0  0  0
  4 10  1  0  0  0  0
  5  4  1  1  0  0  0
  5  6  1  0  0  0  0
  6 13  1  1  0  0  0
  6  7  1  0  0  0  0
  7  9  1  0  0  0  0
  8  7  1  0  0  0  0
 10  7  1  0  0  0  0
 10 29  1  6  0  0  0
 11 12  1  0  0  0  0
 12 15  1  1  0  0  0
 12 13  1  0  0  0  0
 14 11  1  0  0  0  0
 15 19  1  0  0  0  0
 16 17  1  0  0  0  0
 16 15  2  0  0  0  0
 17 18  2  0  0  0  0
 18 19  1  0  0  0  0
 19 21  1  0  0  0  0
 20 16  1  0  0  0  0
 21 22  1  0  0  0  0
 22 27  1  0  0  0  0
 22 24  2  0  0  0  0
 23 21  2  0  0  0  0
 23 25  1  0  0  0  0
 25 26  2  0  0  0  0
 26 24  1  0  0  0  0
 28 23  1  0  0  0  0
 29 30  2  0  0  0  0
 31 32  1  0  0  0  0
 31 29  1  0  0  0  0
M  END
>  <minimizedAffinity>
-9.27143478

>  <CNNscore>
0.926254094

>  <CNNaffinity>
7.16059875

$$$$
