
 OpenBabel07312600573D

 32 35  0  0  0  0  0  0  0  0999 V2000
  100.6050  101.4140  104.1640 C   0  0  0  0  0  0  0  0  0  0  0  0
  100.8940  102.7890  104.2510 C   0  0  0  0  0  0  0  0  0  0  0  0
  101.8320  103.2700  105.1580 C   0  0  0  0  0  0  0  0  0  0  0  0
  102.5010  102.4020  106.0190 C   0  0  0  0  0  0  0  0  0  0  0  0
  102.2040  101.0290  105.9530 C   0  0  0  0  0  0  0  0  0  0  0  0
  101.2730  100.5140  105.0350 C   0  0  0  0  0  0  0  0  0  0  0  0
  101.2380   99.1010  105.2490 C   0  0  0  0  0  0  0  0  0  0  0  0
  102.1220   98.7950  106.2550 C   0  0  0  0  0  0  0  0  0  0  0  0
  102.6820   99.9670  106.6950 N   0  0  0  0  0  0  0  0  0  0  0  0
   99.6200  100.9390  103.2010 C   0  0  0  0  0  0  0  0  0  0  0  0
   97.7650  100.7560  102.2160 C   0  0  0  0  0  0  0  0  0  0  0  0
   98.3140  101.3980  103.2210 N   0  0  0  0  0  0  0  0  0  0  0  0
   98.6430   99.9440  101.5570 O   0  0  0  0  0  0  0  0  0  0  0  0
   99.8640  100.0670  102.2100 N   0  0  0  0  0  0  0  0  0  0  0  0
   96.3930  100.7700  101.7430 C   0  0  0  0  0  0  0  0  0  0  0  0
   93.7740  100.9660  100.8970 C   0  0  0  0  0  0  0  0  0  0  0  0
   94.4790  102.1090  101.0600 N   0  0  0  0  0  0  0  0  0  0  0  0
   94.3200   99.7010  101.1110 C   0  0  0  0  0  0  0  0  0  0  0  0
   95.7650  101.9820  101.4740 C   0  0  0  0  0  0  0  0  0  0  0  0
   95.6430   99.6070  101.5420 C   0  0  0  0  0  0  0  0  0  0  0  0
   93.4110   98.2520  100.8830 Cl  0  0  0  0  0  0  0  0  0  0  0  0
   92.4610  101.0390  100.4820 O   0  0  0  0  0  0  0  0  0  0  0  0
   91.5900  100.0160  100.9780 C   0  0  0  0  0  0  0  0  0  0  0  0
   90.9090  100.4940  102.2590 C   0  0  0  0  0  0  0  0  0  0  0  0
   90.5450   99.7660   99.8910 C   0  0  0  0  0  0  0  0  0  0  0  0
  103.6460  100.0310  107.7820 C   0  0  0  0  0  0  0  0  0  0  0  0
  103.2040   99.2560  109.0270 C   0  0  0  0  0  0  0  0  0  0  0  0
  103.9390   97.9300  109.2270 C   0  0  0  0  0  0  0  0  0  0  0  0
  105.1250   97.7660  108.3140 C   0  0  0  0  0  0  0  0  0  0  0  0
  105.1300   97.2130  107.2280 O   0  0  0  0  0  0  0  0  0  0  0  0
  106.2420   98.3450  108.7860 O   0  0  0  0  0  0  0  0  0  0  0  0
  106.8970   98.2200  108.0690 H   0  0  0  0  0  0  0  0  0  0  0  0
  1  2  2  0  0  0  0
  1  6  1  0  0  0  0
  2  3  1  0  0  0  0
  3  4  2  0  0  0  0
  5  4  1  0  0  0  0
  5  9  1  0  0  0  0
  6  7  1  0  0  0  0
  6  5  2  0  0  0  0
  7  8  2  0  0  0  0
  8  9  1  0  0  0  0
  9 26  1  0  0  0  0
 10 12  1  0  0  0  0
 10  1  1  0  0  0  0
 11 12  2  0  0  0  0
 13 14  1  0  0  0  0
 13 11  1  0  0  0  0
 14 10  2  0  0  0  0
 15 11  1  0  0  0  0
 16 17  2  0  0  0  0
 16 18  1  0  0  0  0
 17 19  1  0  0  0  0
 18 20  2  0  0  0  0
 19 15  2  0  0  0  0
 20 15  1  0  0  0  0
 21 18  1  0  0  0  0
 22 16  1  0  0  0  0
 22 23  1  0  0  0  0
 23 24  1  0  0  0  0
 25 23  1  0  0  0  0
 26 27  1  0  0  0  0
 27 28  1  0  0  0  0
 29 31  1  0  0  0  0
 29 28  1  0  0  0  0
 30 29  2  0  0  0  0
 32 31  1  0  0  0  0
M  END
>  <minimizedAffinity>
-9.10053635

>  <CNNscore>
0.86069566

>  <CNNaffinity>
7.39136267

$$$$
