
 OpenBabel07312622133D

 46 53  0  0  1  0  0  0  0  0999 V2000
  101.7610   99.5230  105.6760 C   0  0  0  0  0  2  0  0  0  0  0  0
  100.3720   99.0250  105.2770 C   0  0  0  0  0  0  0  0  0  0  0  0
   99.9140   98.0040  105.7970 O   0  0  0  0  0  0  0  0  0  0  0  0
   99.5620   99.8520  104.2720 C   0  0  1  0  0  3  0  0  0  0  0  0
  100.2880   99.9880  102.8960 C   0  0  1  0  0  3  0  0  0  0  0  0
   99.1780  100.0410  101.8240 C   0  0  0  0  0  2  0  0  0  0  0  0
   97.8800  100.0900  102.6230 C   0  0  2  0  0  3  0  0  0  0  0  0
   98.1750   99.2730  103.8960 C   0  0  2  0  0  0  0  0  0  0  0  0
   96.5940   99.6450  101.9030 C   0  0  2  0  0  3  0  0  0  0  0  0
   97.0360   99.5920  104.8820 C   0  0  0  0  0  2  0  0  0  0  0  0
   96.2300  100.6860  100.8280 C   0  0  0  0  0  2  0  0  0  0  0  0
   95.4360   99.4380  102.9030 C   0  0  0  0  0  0  0  0  0  0  0  0
   95.6720   99.4700  104.2380 C   0  0  0  0  0  3  0  0  0  0  0  0
   94.9100  100.3700  100.1350 C   0  0  0  0  0  2  0  0  0  0  0  0
   94.0520   99.1770  102.2560 C   0  0  2  0  0  0  0  0  0  0  0  0
   93.8120  100.2200  101.1570 C   0  0  0  0  0  0  0  0  0  0  0  0
   92.9120   99.1810  103.2690 C   0  0  0  0  0  3  0  0  0  0  0  0
   92.7260  101.0110  101.1010 C   0  0  0  0  0  3  0  0  0  0  0  0
   91.8290   99.9670  103.2120 C   0  0  0  0  0  3  0  0  0  0  0  0
   91.6540  100.9330  102.1130 C   0  0  0  0  0  0  0  0  0  0  0  0
   90.6580  101.6410  102.0410 O   0  0  0  0  0  0  0  0  0  0  0  0
  101.1920  101.2140  102.8560 C   0  0  0  0  0  1  0  0  0  0  0  0
   98.2480   97.7440  103.6490 C   0  0  0  0  0  1  0  0  0  0  0  0
   94.0420   97.7550  101.6410 C   0  0  0  0  0  1  0  0  0  0  0  0
  101.6850  100.6060  106.6770 N   0  0  0  0  0  0  0  0  0  0  0  0
  100.2680  100.8870  107.0470 C   0  0  0  0  0  2  0  0  0  0  0  0
  102.3440  101.8300  106.1690 C   0  0  0  0  0  2  0  0  0  0  0  0
   99.8520  102.3790  107.0520 C   0  0  0  0  0  2  0  0  0  0  0  0
  101.5030  102.7100  105.2100 C   0  0  0  0  0  2  0  0  0  0  0  0
  100.1580  102.9640  105.7410 N   0  0  0  0  0  0  0  0  0  0  0  0
   99.5060  104.1500  105.4070 C   0  0  0  0  0  0  0  0  0  0  0  0
   98.3770  104.1430  104.6090 C   0  0  0  0  0  3  0  0  0  0  0  0
   99.9640  105.3020  105.9180 N   0  0  0  0  0  0  0  0  0  0  0  0
   97.7350  105.3390  104.3550 C   0  0  0  0  0  0  0  0  0  0  0  0
   99.3180  106.4400  105.6260 C   0  0  0  0  0  0  0  0  0  0  0  0
   98.2260  106.4830  104.8540 N   0  0  0  0  0  0  0  0  0  0  0  0
   96.6000  105.4050  103.5740 N   0  0  0  0  0  0  0  0  0  0  0  0
   95.7530  104.2170  103.4470 C   0  0  0  0  0  2  0  0  0  0  0  0
   96.4250  106.3080  102.4500 C   0  0  0  0  0  2  0  0  0  0  0  0
   95.0590  104.3970  102.0960 C   0  0  0  0  0  2  0  0  0  0  0  0
   95.0680  105.9010  101.8830 C   0  0  0  0  0  2  0  0  0  0  0  0
   99.7780  107.6070  106.1680 N   0  0  0  0  0  0  0  0  0  0  0  0
  101.1100  108.1010  105.9030 C   0  0  0  0  0  2  0  0  0  0  0  0
   98.8690  108.6370  106.6320 C   0  0  0  0  0  2  0  0  0  0  0  0
  101.1460  109.4000  106.7050 C   0  0  0  0  0  2  0  0  0  0  0  0
   99.7160  109.9100  106.5880 C   0  0  0  0  0  2  0  0  0  0  0  0
  1 25  1  0  0  0  0
  2  1  1  0  0  0  0
  2  3  2  0  0  0  0
  4  2  1  1  0  0  0
  5 22  1  1  0  0  0
  5  4  1  0  0  0  0
  6  5  1  0  0  0  0
  7  6  1  6  0  0  0
  7  8  1  0  0  0  0
  8 23  1  6  0  0  0
  8  4  1  0  0  0  0
  8 10  1  0  0  0  0
  9 11  1  6  0  0  0
  9  7  1  0  0  0  0
  9 12  1  0  0  0  0
 12 13  2  0  0  0  0
 13 10  1  0  0  0  0
 14 11  1  0  0  0  0
 14 16  1  0  0  0  0
 15 24  1  6  0  0  0
 15 12  1  0  0  0  0
 15 17  1  0  0  0  0
 16 15  1  0  0  0  0
 18 16  2  0  0  0  0
 18 20  1  0  0  0  0
 19 17  2  0  0  0  0
 20 19  1  0  0  0  0
 21 20  2  0  0  0  0
 25 26  1  0  0  0  0
 26 28  1  0  0  0  0
 27 25  1  0  0  0  0
 29 30  1  0  0  0  0
 29 27  1  0  0  0  0
 30 28  1  0  0  0  0
 31 30  1  0  0  0  0
 31 33  1  0  0  0  0
 32 31  2  0  0  0  0
 34 32  1  0  0  0  0
 34 36  2  0  0  0  0
 35 33  2  0  0  0  0
 35 42  1  0  0  0  0
 36 35  1  0  0  0  0
 37 34  1  0  0  0  0
 38 37  1  0  0  0  0
 39 37  1  0  0  0  0
 40 38  1  0  0  0  0
 41 40  1  0  0  0  0
 41 39  1  0  0  0  0
 42 44  1  0  0  0  0
 43 42  1  0  0  0  0
 43 45  1  0  0  0  0
 46 44  1  0  0  0  0
 46 45  1  0  0  0  0
M  END
>  <minimizedAffinity>
-5.1502161

>  <CNNscore>
0.632117271

>  <CNNaffinity>
8.10561848

$$$$
