
 OpenBabel07312619193D

 33 36  0  0  1  0  0  0  0  0999 V2000
   98.2320  102.8550  107.7840 O   0  0  0  0  0  0  0  0  0  0  0  0
   97.9660  104.2440  107.9790 C   0  0  0  0  0  2  0  0  0  0  0  0
   97.5210  104.9240  106.6600 C   0  0  1  0  0  0  0  0  0  0  0  0
  101.7860  106.4770  104.9710 C   0  0  0  0  0  0  0  0  0  0  0  0
  100.5740  106.6980  105.6630 C   0  0  0  0  0  0  0  0  0  0  0  0
  102.0360  105.1940  104.4540 C   0  0  0  0  0  0  0  0  0  0  0  0
   99.6050  105.6740  105.7130 C   0  0  0  0  0  0  0  0  0  0  0  0
  101.0870  104.1590  104.5250 C   0  0  0  0  0  0  0  0  0  0  0  0
   99.8340  104.4220  105.1170 C   0  0  0  0  0  0  0  0  0  0  0  0
   98.4300  105.9950  106.3500 O   0  0  0  0  0  0  0  0  0  0  0  0
   98.7590  103.3650  105.1390 C   0  0  0  0  0  2  0  0  0  0  0  0
   97.4040  103.9600  105.4740 C   0  0  0  0  0  2  0  0  0  0  0  0
  102.7960  107.5850  104.8150 C   0  0  0  0  0  1  0  0  0  0  0  0
  100.2790  108.0370  106.2980 C   0  0  0  0  0  1  0  0  0  0  0  0
  101.3970  102.8160  103.9140 C   0  0  0  0  0  1  0  0  0  0  0  0
   96.1530  105.5970  106.8630 C   0  0  0  0  0  1  0  0  0  0  0  0
  103.2300  104.8990  103.8430 O   0  0  0  0  0  0  0  0  0  0  0  0
  103.9100  105.5040  104.1770 H   0  0  0  0  0  0  0  0  0  0  0  0
   99.5200  102.4050  107.7510 C   0  0  0  0  0  0  0  0  0  0  0  0
   99.6830  101.1900  107.0810 C   0  0  0  0  0  3  0  0  0  0  0  0
  100.6330  103.0090  108.3290 C   0  0  0  0  0  3  0  0  0  0  0  0
  100.9410  100.5910  106.9740 C   0  0  0  0  0  3  0  0  0  0  0  0
  101.8960  102.4140  108.2230 C   0  0  0  0  0  3  0  0  0  0  0  0
  102.0620  101.2010  107.5460 C   0  0  0  0  0  0  0  0  0  0  0  0
  103.4280  100.5630  107.4180 C   0  0  0  0  0  2  0  0  0  0  0  0
  103.4090   99.0790  107.7870 C   0  0  2  0  0  3  0  0  0  0  0  0
  105.0280   98.5440  108.4560 S   0  0  0  0  0  0  0  0  0  0  0  0
  103.1950   98.1760  106.5850 C   0  0  0  0  0  0  0  0  0  0  0  0
  105.1210   97.1650  107.3970 C   0  0  0  0  0  0  0  0  0  0  0  0
  104.0220   97.0940  106.6130 N   0  0  0  0  0  0  0  0  0  0  0  0
  102.3920   98.3600  105.6810 O   0  0  0  0  0  0  0  0  0  0  0  0
  106.0760   96.4110  107.3440 O   0  0  0  0  0  0  0  0  0  0  0  0
  104.0160   96.4410  105.8450 H   0  0  0  0  0  0  0  0  0  0  0  0
  1  2  1  0  0  0  0
  3 16  1  1  0  0  0
  3  2  1  0  0  0  0
  4  5  1  0  0  0  0
  5  7  2  0  0  0  0
  5 14  1  0  0  0  0
  6  8  1  0  0  0  0
  6  4  2  0  0  0  0
  7 10  1  0  0  0  0
  8  9  2  0  0  0  0
  9 11  1  0  0  0  0
  9  7  1  0  0  0  0
 10  3  1  0  0  0  0
 11 12  1  0  0  0  0
 12  3  1  0  0  0  0
 13  4  1  0  0  0  0
 15  8  1  0  0  0  0
 17 18  1  0  0  0  0
 17  6  1  0  0  0  0
 19  1  1  0  0  0  0
 19 21  1  0  0  0  0
 20 19  2  0  0  0  0
 22 20  1  0  0  0  0
 22 24  2  0  0  0  0
 23 21  2  0  0  0  0
 24 23  1  0  0  0  0
 25 24  1  0  0  0  0
 26 25  1  6  0  0  0
 26 27  1  0  0  0  0
 28 30  1  0  0  0  0
 28 26  1  0  0  0  0
 29 27  1  0  0  0  0
 30 29  1  0  0  0  0
 31 28  2  0  0  0  0
 32 29  2  0  0  0  0
 33 30  1  0  0  0  0
M  END
>  <minimizedAffinity>
-8.88274574

>  <CNNscore>
0.723310113

>  <CNNaffinity>
7.34183311

$$$$
