
 OpenBabel08012601393D

 37 40  0  0  0  0  0  0  0  0999 V2000
   97.9230   98.5590  104.3510 C   0  0  0  0  0  2  0  0  0  0  0  0
   98.2140   99.9770  104.7870 C   0  0  0  0  0  0  0  0  0  0  0  0
   98.7450  102.6270  105.5540 C   0  0  0  0  0  0  0  0  0  0  0  0
   99.7990  101.7560  105.2610 C   0  0  0  0  0  3  0  0  0  0  0  0
   97.4240  102.1700  105.4720 C   0  0  0  0  0  3  0  0  0  0  0  0
   99.5330  100.4380  104.8770 C   0  0  0  0  0  3  0  0  0  0  0  0
   97.1630  100.8530  105.0870 C   0  0  0  0  0  3  0  0  0  0  0  0
   99.0070  103.9670  105.9490 N   0  0  0  0  0  0  0  0  0  0  0  0
   98.3110  104.7290  106.8870 C   0  0  0  0  0  0  0  0  0  0  0  0
   98.8210  105.9410  106.9890 N   0  0  0  0  0  0  0  0  0  0  0  0
   99.8930  105.9800  106.1350 C   0  0  0  0  0  0  0  0  0  0  0  0
  100.0410  104.7660  105.4730 C   0  0  0  0  0  0  0  0  0  0  0  0
  100.7870  107.0340  105.8690 C   0  0  0  0  0  0  0  0  0  0  0  0
  101.0360  104.5840  104.5050 C   0  0  0  0  0  3  0  0  0  0  0  0
  101.7730  106.8490  104.9410 N   0  0  0  0  0  0  0  0  0  0  0  0
  101.8830  105.6690  104.2870 C   0  0  0  0  0  0  0  0  0  0  0  0
  100.6950  108.3730  106.5310 C   0  0  0  0  0  1  0  0  0  0  0  0
  102.9800  105.5570  103.2690 C   0  0  0  0  0  1  0  0  0  0  0  0
   97.2220  104.2350  107.7890 C   0  0  0  0  0  2  0  0  0  0  0  0
   95.8410  104.6380  107.2960 C   0  0  0  0  0  1  0  0  0  0  0  0
   96.7620   98.4710  103.3520 C   0  0  0  0  0  2  0  0  0  0  0  0
   95.7690   99.5140  103.5340 N   0  0  0  0  0  0  0  0  0  0  0  0
   95.5210  100.4280  102.5530 C   0  0  0  0  0  0  0  0  0  0  0  0
   96.1910  100.5400  101.5400 O   0  0  0  0  0  0  0  0  0  0  0  0
   94.4120  101.2040  102.8340 N   0  0  0  0  0  0  0  0  0  0  0  0
   95.0340   99.3390  104.2010 H   0  0  0  0  0  0  0  0  0  0  0  0
   93.9420  101.1570  103.7270 H   0  0  0  0  0  0  0  0  0  0  0  0
   93.7450  102.3230  101.8040 S   0  0  0  0  0  0  0  0  0  0  0  0
   93.3390  103.4860  102.5600 O   0  0  0  0  0  0  0  0  0  0  0  0
   94.6980  102.4460  100.7180 O   0  0  0  0  0  0  0  0  0  0  0  0
   92.3100  101.5020  101.1620 C   0  0  0  0  0  0  0  0  0  0  0  0
   92.2060  100.1120  101.2670 C   0  0  0  0  0  3  0  0  0  0  0  0
   91.3280  102.2390  100.4990 C   0  0  0  0  0  3  0  0  0  0  0  0
   91.0930   99.4620  100.7310 C   0  0  0  0  0  3  0  0  0  0  0  0
   90.2160  101.5830   99.9670 C   0  0  0  0  0  3  0  0  0  0  0  0
   90.0830  100.1940  100.0910 C   0  0  0  0  0  0  0  0  0  0  0  0
   88.9050   99.4900   99.4850 C   0  0  0  0  0  1  0  0  0  0  0  0
  1  2  1  0  0  0  0
  2  6  2  0  0  0  0
  2  7  1  0  0  0  0
  3  8  1  0  0  0  0
  4  3  2  0  0  0  0
  5  3  1  0  0  0  0
  6  4  1  0  0  0  0
  7  5  2  0  0  0  0
  8  9  1  0  0  0  0
  9 10  2  0  0  0  0
  9 19  1  0  0  0  0
 11 10  1  0  0  0  0
 12  8  1  0  0  0  0
 12 11  2  0  0  0  0
 13 11  1  0  0  0  0
 13 17  1  0  0  0  0
 14 12  1  0  0  0  0
 15 13  2  0  0  0  0
 16 14  2  0  0  0  0
 16 15  1  0  0  0  0
 18 16  1  0  0  0  0
 20 19  1  0  0  0  0
 21 22  1  0  0  0  0
 21  1  1  0  0  0  0
 22 26  1  0  0  0  0
 23 25  1  0  0  0  0
 23 22  1  0  0  0  0
 24 23  2  0  0  0  0
 25 27  1  0  0  0  0
 28 29  2  0  0  0  0
 28 25  1  0  0  0  0
 30 28  2  0  0  0  0
 31 32  1  0  0  0  0
 31 28  1  0  0  0  0
 33 31  2  0  0  0  0
 34 32  2  0  0  0  0
 35 36  2  0  0  0  0
 35 33  1  0  0  0  0
 36 34  1  0  0  0  0
 37 36  1  0  0  0  0
M  END
>  <minimizedAffinity>
-8.38482094

>  <CNNscore>
0.512795448

>  <CNNaffinity>
7.25144911

$$$$
