
 OpenBabel07312619373D

 45 48  0  0  1  0  0  0  0  0999 V2000
   99.9880  100.1240  104.4590 C   0  0  2  0  0  3  0  0  0  0  0  0
  100.0520  101.5530  104.7680 N   0  0  0  0  0  0  0  0  0  0  0  0
   99.8230  102.0330  106.0380 C   0  0  0  0  0  0  0  0  0  0  0  0
   99.6520  101.3220  107.0190 O   0  0  0  0  0  0  0  0  0  0  0  0
  100.2080  102.1990  104.0050 H   0  0  0  0  0  0  0  0  0  0  0  0
   99.6930  103.5100  106.1350 C   0  0  0  0  0  0  0  0  0  0  0  0
   99.2960  106.2500  106.4090 C   0  0  0  0  0  0  0  0  0  0  0  0
   99.4800  105.7060  105.1370 C   0  0  0  0  0  3  0  0  0  0  0  0
   99.3000  105.4230  107.5420 C   0  0  0  0  0  0  0  0  0  0  0  0
   99.6760  104.3310  104.9990 C   0  0  0  0  0  3  0  0  0  0  0  0
   99.5220  104.0570  107.4080 C   0  0  0  0  0  3  0  0  0  0  0  0
   99.0120  106.0500  109.1210 Cl  0  0  0  0  0  0  0  0  0  0  0  0
   99.0320  107.5800  106.5410 O   0  0  0  0  0  0  0  0  0  0  0  0
  100.1490  108.4500  106.7910 C   0  0  0  0  0  3  0  0  0  0  0  0
  101.3010  107.8780  105.9570 C   0  0  0  0  0  1  0  0  0  0  0  0
   99.9770  109.9350  106.4710 C   0  0  0  0  0  1  0  0  0  0  0  0
  101.3590   99.4420  104.6380 C   0  0  0  0  0  2  0  0  0  0  0  0
  102.0540   99.9380  105.8200 N   0  0  0  0  0  0  0  0  0  0  0  0
  102.7220   99.1030  106.6960 C   0  0  0  0  0  0  0  0  0  0  0  0
  102.7200   97.8790  106.5720 O   0  0  0  0  0  0  0  0  0  0  0  0
  102.2170  100.9340  105.8680 H   0  0  0  0  0  0  0  0  0  0  0  0
  103.4300   99.8500  107.8390 C   0  0  0  0  0  2  0  0  0  0  0  0
  103.8580   98.9410  108.9180 N   0  0  0  0  0  0  0  0  0  0  0  0
  104.8880   98.0300  108.4260 C   0  0  0  0  0  1  0  0  0  0  0  0
  102.7380   98.1900  109.4770 C   0  0  0  0  0  1  0  0  0  0  0  0
   99.3300   99.8600  103.0820 C   0  0  0  0  0  2  0  0  0  0  0  0
   97.8170   99.7770  103.0770 C   0  0  0  0  0  0  0  0  0  0  0  0
   97.1380   99.1900  104.1530 C   0  0  0  0  0  3  0  0  0  0  0  0
   97.0680  100.2870  102.0100 C   0  0  0  0  0  3  0  0  0  0  0  0
   95.7390   99.1540  104.1750 C   0  0  0  0  0  3  0  0  0  0  0  0
   95.6670  100.2310  102.0270 C   0  0  0  0  0  3  0  0  0  0  0  0
   94.9830   99.6710  103.1130 C   0  0  0  0  0  0  0  0  0  0  0  0
   93.5290   99.6100  103.1800 C   0  0  0  0  0  0  0  0  0  0  0  0
   92.6290  100.2460  102.3460 C   0  0  0  0  0  3  0  0  0  0  0  0
   92.8610   98.8800  104.1430 N   0  0  0  0  0  0  0  0  0  0  0  0
   91.3850   99.8910  102.8050 N   0  0  0  0  0  0  0  0  0  0  0  0
   91.5770   99.0530  103.8970 C   0  0  0  0  0  0  0  0  0  0  0  0
   90.1340  100.2560  102.3260 C   0  0  0  0  0  3  0  0  0  0  0  0
   90.4180   98.5240  104.5670 C   0  0  0  0  0  0  0  0  0  0  0  0
   89.0430   99.7810  102.9430 C   0  0  0  0  0  3  0  0  0  0  0  0
   89.2040   98.8980  104.0880 C   0  0  0  0  0  3  0  0  0  0  0  0
   90.5630   97.5910  105.7600 C   0  0  2  0  0  3  0  0  0  0  0  0
   89.2050   97.1100  106.2590 C   0  0  0  0  0  1  0  0  0  0  0  0
   91.2300   98.2460  106.8450 O   0  0  0  0  0  0  0  0  0  0  0  0
   92.1780   98.2490  106.6240 H   0  0  0  0  0  0  0  0  0  0  0  0
  1 26  1  6  0  0  0
  1 17  1  0  0  0  0
  1  2  1  0  0  0  0
  2  3  1  0  0  0  0
  3  6  1  0  0  0  0
  3  4  2  0  0  0  0
  5  2  1  0  0  0  0
  6 11  1  0  0  0  0
  7 13  1  0  0  0  0
  7  9  1  0  0  0  0
  8  7  2  0  0  0  0
  9 12  1  0  0  0  0
 10  8  1  0  0  0  0
 10  6  2  0  0  0  0
 11  9  2  0  0  0  0
 13 14  1  0  0  0  0
 15 14  1  0  0  0  0
 16 14  1  0  0  0  0
 17 18  1  0  0  0  0
 18 21  1  0  0  0  0
 18 19  1  0  0  0  0
 19 22  1  0  0  0  0
 20 19  2  0  0  0  0
 22 23  1  0  0  0  0
 23 25  1  0  0  0  0
 24 23  1  0  0  0  0
 27 26  1  0  0  0  0
 27 28  1  0  0  0  0
 28 30  2  0  0  0  0
 29 31  1  0  0  0  0
 29 27  2  0  0  0  0
 31 32  2  0  0  0  0
 32 33  1  0  0  0  0
 32 30  1  0  0  0  0
 33 35  1  0  0  0  0
 34 36  1  0  0  0  0
 34 33  2  0  0  0  0
 36 37  1  0  0  0  0
 37 35  2  0  0  0  0
 37 39  1  0  0  0  0
 38 36  1  0  0  0  0
 38 40  2  0  0  0  0
 39 42  1  0  0  0  0
 40 41  1  0  0  0  0
 41 39  2  0  0  0  0
 42 43  1  1  0  0  0
 42 44  1  0  0  0  0
 45 44  1  0  0  0  0
M  END
>  <minimizedAffinity>
-9.20034599

>  <CNNscore>
0.755833864

>  <CNNaffinity>
8.3834219

$$$$
