
 OpenBabel07312616073D

 42 46  0  0  1  0  0  0  0  0999 V2000
  102.6390   98.9200  106.2720 C   0  0  0  0  0  0  0  0  0  0  0  0
  102.7040   97.6990  106.3070 O   0  0  0  0  0  0  0  0  0  0  0  0
  102.1780   99.6610  105.2310 O   0  0  0  0  0  0  0  0  0  0  0  0
  100.9690   99.2150  104.5740 C   0  0  2  0  0  3  0  0  0  0  0  0
  100.6960  100.0740  103.2800 C   0  0  0  0  0  0  0  0  0  0  0  0
   99.1470  100.2750  103.1500 C   0  0  2  0  0  3  0  0  0  0  0  0
   99.8400   99.2700  105.6200 C   0  0  0  0  0  2  0  0  0  0  0  0
   98.6260  100.8070  101.8080 C   0  0  0  0  0  2  0  0  0  0  0  0
   98.4610  101.0350  104.3460 C   0  0  2  0  0  0  0  0  0  0  0  0
   99.2060  100.6510  105.6730 C   0  0  0  0  0  2  0  0  0  0  0  0
   97.1550  100.4180  101.6560 C   0  0  0  0  0  2  0  0  0  0  0  0
   96.9430  100.6540  104.2660 C   0  0  0  0  0  0  0  0  0  0  0  0
   96.2230  100.7250  102.8720 C   0  0  2  0  0  0  0  0  0  0  0  0
   96.2350  100.2750  105.3530 C   0  0  0  0  0  3  0  0  0  0  0  0
   94.9550   99.6900  102.8470 C   0  0  2  0  0  0  0  0  0  0  0  0
   94.7920   99.8520  105.3850 C   0  0  0  0  0  2  0  0  0  0  0  0
   94.1480   99.7910  101.5210 C   0  0  0  0  0  2  0  0  0  0  0  0
   94.0340  100.0380  104.0600 C   0  0  2  0  0  3  0  0  0  0  0  0
   92.8150   99.0490  101.5570 C   0  0  0  0  0  2  0  0  0  0  0  0
   92.5850   99.4400  104.0800 C   0  0  1  0  0  3  0  0  0  0  0  0
   91.8720   99.5140  102.6890 C   0  0  2  0  0  0  0  0  0  0  0  0
   92.4000   98.0300  104.6830 C   0  0  0  0  0  2  0  0  0  0  0  0
   90.6080   98.6020  102.6480 C   0  0  0  0  0  2  0  0  0  0  0  0
   90.9050   97.7420  105.0220 C   0  0  1  0  0  0  0  0  0  0  0  0
   89.9570   98.4350  104.0170 C   0  0  0  0  0  2  0  0  0  0  0  0
  101.4760  101.4040  103.2650 C   0  0  0  0  0  1  0  0  0  0  0  0
  101.2350   99.2540  102.0770 C   0  0  0  0  0  1  0  0  0  0  0  0
   98.5460  102.5840  104.2980 C   0  0  0  0  0  1  0  0  0  0  0  0
   95.7460  102.2050  102.7090 C   0  0  0  0  0  1  0  0  0  0  0  0
   95.4630   98.2170  102.9580 C   0  0  0  0  0  1  0  0  0  0  0  0
   91.4160  100.9700  102.4280 C   0  0  0  0  0  1  0  0  0  0  0  0
   90.6950   96.2160  105.0150 C   0  0  0  0  0  1  0  0  0  0  0  0
   90.5840   98.2650  106.4230 C   0  0  0  0  0  0  0  0  0  0  0  0
   89.9100   97.7130  107.2770 O   0  0  0  0  0  0  0  0  0  0  0  0
   91.1570   99.4550  106.6910 O   0  0  0  0  0  0  0  0  0  0  0  0
   90.8810   99.6460  107.6120 H   0  0  0  0  0  0  0  0  0  0  0  0
  103.0600   99.8140  107.4050 C   0  0  0  0  0  2  0  0  0  0  0  0
  103.1260   99.0160  108.6970 C   0  0  0  0  0  2  0  0  0  0  0  0
  104.3960   98.2250  108.7840 C   0  0  0  0  0  0  0  0  0  0  0  0
  105.4690   98.5340  108.2960 O   0  0  0  0  0  0  0  0  0  0  0  0
  104.2490   97.0600  109.4400 O   0  0  0  0  0  0  0  0  0  0  0  0
  105.1340   96.6400  109.3830 H   0  0  0  0  0  0  0  0  0  0  0  0
  1  2  2  0  0  0  0
  1 37  1  0  0  0  0
  3  1  1  0  0  0  0
  4  3  1  1  0  0  0
  4  7  1  0  0  0  0
  5  4  1  0  0  0  0
  6  8  1  6  0  0  0
  6  5  1  0  0  0  0
  6  9  1  0  0  0  0
  7 10  1  0  0  0  0
  9 28  1  6  0  0  0
  9 10  1  0  0  0  0
 11  8  1  0  0  0  0
 11 13  1  0  0  0  0
 12  9  1  0  0  0  0
 12 14  2  0  0  0  0
 13 29  1  6  0  0  0
 13 12  1  0  0  0  0
 14 16  1  0  0  0  0
 15 13  1  0  0  0  0
 15 30  1  1  0  0  0
 15 18  1  0  0  0  0
 17 19  1  0  0  0  0
 17 15  1  0  0  0  0
 18 20  1  0  0  0  0
 18 16  1  1  0  0  0
 19 21  1  0  0  0  0
 20 22  1  6  0  0  0
 21 31  1  6  0  0  0
 21 20  1  0  0  0  0
 22 24  1  0  0  0  0
 23 21  1  0  0  0  0
 23 25  1  0  0  0  0
 24 32  1  6  0  0  0
 24 33  1  0  0  0  0
 25 24  1  0  0  0  0
 26  5  1  0  0  0  0
 27  5  1  0  0  0  0
 33 35  1  0  0  0  0
 33 34  2  0  0  0  0
 35 36  1  0  0  0  0
 37 38  1  0  0  0  0
 38 39  1  0  0  0  0
 39 41  1  0  0  0  0
 40 39  2  0  0  0  0
 42 41  1  0  0  0  0
M  END
>  <minimizedAffinity>
-7.80032635

>  <CNNscore>
0.618739784

>  <CNNaffinity>
7.0825901

$$$$
