
 OpenBabel07312605153D

 25 25  0  0  0  0  0  0  0  0999 V2000
   98.4780  100.9260  104.1060 C   0  0  0  0  0  0  0  0  0  0  0  0
   97.1460  100.4790  104.2580 C   0  0  0  0  0  0  0  0  0  0  0  0
   96.2800   99.1020  102.8290 I   0  0  0  0  0  0  0  0  0  0  0  0
   96.2830  101.0690  105.2140 C   0  0  0  0  0  0  0  0  0  0  0  0
   96.7800  102.0900  106.0510 C   0  0  0  0  0  0  0  0  0  0  0  0
   95.6810  102.7070  107.7940 I   0  0  0  0  0  0  0  0  0  0  0  0
   98.0720  102.6050  105.8330 C   0  0  0  0  0  0  0  0  0  0  0  0
   98.9090  102.0420  104.8540 C   0  0  0  0  0  0  0  0  0  0  0  0
  100.8780  102.8180  104.5200 I   0  0  0  0  0  0  0  0  0  0  0  0
   99.3960  100.3130  103.2080 N   0  0  0  0  0  0  0  0  0  0  0  0
  100.1320   99.1930  103.5860 C   0  0  0  0  0  0  0  0  0  0  0  0
  100.0420   98.6270  104.6700 O   0  0  0  0  0  0  0  0  0  0  0  0
   99.9290  100.9580  102.6330 H   0  0  0  0  0  0  0  0  0  0  0  0
  101.1140   98.7740  102.5060 C   0  0  0  0  0  0  0  0  0  0  0  0
  101.2240   99.8020  101.3940 C   0  0  0  0  0  0  0  0  0  0  0  0
   94.9450  100.5900  105.3050 N   0  0  0  0  0  0  0  0  0  0  0  0
   94.6520   99.3990  105.9640 C   0  0  0  0  0  0  0  0  0  0  0  0
   95.4840   98.6650  106.4870 O   0  0  0  0  0  0  0  0  0  0  0  0
   94.2470  101.3120  105.4650 H   0  0  0  0  0  0  0  0  0  0  0  0
   93.1580   99.1360  106.0140 C   0  0  0  0  0  0  0  0  0  0  0  0
   92.6310   98.5580  104.7130 C   0  0  0  0  0  0  0  0  0  0  0  0
   98.5710  103.7090  106.6630 C   0  0  0  0  0  0  0  0  0  0  0  0
   99.2280  103.6090  107.6780 O   0  0  0  0  0  0  0  0  0  0  0  0
   98.2140  104.8850  106.1220 O   0  0  0  0  0  0  0  0  0  0  0  0
   98.5620  105.5610  106.7410 H   0  0  0  0  0  0  0  0  0  0  0  0
  1  2  2  0  0  0  0
  1  8  1  0  0  0  0
  2  4  1  0  0  0  0
  3  2  1  0  0  0  0
  4 16  1  0  0  0  0
  4  5  2  0  0  0  0
  5  6  1  0  0  0  0
  7  5  1  0  0  0  0
  7 22  1  0  0  0  0
  8  7  2  0  0  0  0
  9  8  1  0  0  0  0
 10 11  1  0  0  0  0
 10  1  1  0  0  0  0
 11 12  2  0  0  0  0
 13 10  1  0  0  0  0
 14 11  1  0  0  0  0
 15 14  1  0  0  0  0
 16 19  1  0  0  0  0
 16 17  1  0  0  0  0
 17 20  1  0  0  0  0
 17 18  2  0  0  0  0
 21 20  1  0  0  0  0
 22 23  2  0  0  0  0
 24 22  1  0  0  0  0
 24 25  1  0  0  0  0
M  END
>  <minimizedAffinity>
-4.80588675

>  <CNNscore>
0.68760848

>  <CNNaffinity>
6.53574514

$$$$
