LZBQTJUASOHOGJ-XNTDXEJSSA-N
     RDKit          3D

 24 25  0  0  0  0  0  0  0  0999 V2000
   -8.4070  -46.4370   31.2440 C   0  0  0  0  0  0  0  0  0  0  0  0
   -8.4160  -44.9120   31.2030 C   0  0  0  0  0  0  0  0  0  0  0  0
   -9.4340  -44.2400   32.0260 N   0  0  0  0  0  0  0  0  0  0  0  0
   -8.8970  -43.1680   32.8840 C   0  0  0  0  0  0  0  0  0  0  0  0
   -7.3780  -43.1850   33.0220 C   0  0  0  0  0  0  0  0  0  0  0  0
  -10.5830  -43.7270   31.2520 C   0  0  0  0  0  0  0  0  0  0  0  0
  -10.3240  -43.5290   29.7480 C   0  0  0  0  0  0  0  0  0  0  0  0
  -10.9640  -44.6000   29.0450 O   0  0  0  0  0  0  0  0  0  0  0  0
  -11.9030  -44.2570   28.1130 C   0  0  0  0  0  0  0  0  0  0  0  0
  -11.9490  -43.0640   27.3910 C   0  0  0  0  0  0  0  0  0  0  0  0
  -12.9740  -42.8430   26.4640 C   0  0  0  0  0  0  0  0  0  0  0  0
  -13.9560  -43.8160   26.2410 C   0  0  0  0  0  0  0  0  0  0  0  0
  -15.0230  -43.5190   25.2470 C   0  0  0  0  0  0  0  0  0  0  0  0
  -14.7930  -43.6380   24.0480 O   0  0  0  0  0  0  0  0  0  0  0  0
  -16.3630  -43.1170   25.7550 C   0  0  0  0  0  0  0  0  0  0  0  0
  -17.1740  -42.3860   24.9770 C   0  0  0  0  0  0  0  0  0  0  0  0
  -18.5250  -41.9650   25.3690 C   0  0  0  0  0  0  0  0  0  0  0  0
  -19.4360  -41.6040   24.3670 C   0  0  0  0  0  0  0  0  0  0  0  0
  -20.7240  -41.1750   24.6970 C   0  0  0  0  0  0  0  0  0  0  0  0
  -21.1110  -41.0910   26.0330 C   0  0  0  0  0  0  0  0  0  0  0  0
  -20.2080  -41.4310   27.0390 C   0  0  0  0  0  0  0  0  0  0  0  0
  -18.9200  -41.8610   26.7090 C   0  0  0  0  0  0  0  0  0  0  0  0
  -13.9190  -45.0050   26.9750 C   0  0  0  0  0  0  0  0  0  0  0  0
  -12.8930  -45.2210   27.9010 C   0  0  0  0  0  0  0  0  0  0  0  0
  1  2  1  0
  2  3  1  0
  3  4  1  0
  4  5  1  0
  3  6  1  0
  6  7  1  0
  7  8  1  0
  8  9  1  0
  9 10  2  0
 10 11  1  0
 11 12  2  0
 12 13  1  0
 13 14  2  0
 13 15  1  0
 15 16  2  0
 16 17  1  0
 17 18  2  0
 18 19  1  0
 19 20  2  0
 20 21  1  0
 21 22  2  0
 12 23  1  0
 23 24  2  0
 24  9  1  0
 22 17  1  0
M  END
$$$$
