JOGKUKXHTYWRGZ-UHFFFAOYSA-N
     RDKit          3D

 36 41  0  0  0  0  0  0  0  0999 V2000
   40.9910   48.9040   42.1860 C   0  0  0  0  0  0  0  0  0  0  0  0
   39.8470   48.4270   41.4620 N   0  0  0  0  0  0  0  0  0  0  0  0
   39.8690   47.8610   40.1730 C   0  0  0  0  0  0  0  0  0  0  0  0
   40.8660   47.7010   39.4830 O   0  0  0  0  0  0  0  0  0  0  0  0
   38.5060   47.5850   39.8430 N   0  0  0  0  0  0  0  0  0  0  0  0
   38.0710   47.2610   38.5440 C   0  0  0  0  0  0  0  0  0  0  0  0
   37.6140   45.9780   38.2240 C   0  0  0  0  0  0  0  0  0  0  0  0
   37.1670   45.6700   36.9320 C   0  0  0  0  0  0  0  0  0  0  0  0
   37.1560   46.6390   35.9130 C   0  0  0  0  0  0  0  0  0  0  0  0
   36.6740   46.3240   34.4840 C   0  0  0  0  0  0  0  0  0  0  0  0
   37.0600   47.4960   33.5600 C   0  0  0  0  0  0  0  0  0  0  0  0
   37.3200   45.0250   33.9520 C   0  0  0  0  0  0  0  0  0  0  0  0
   35.2010   46.1330   34.3940 C   0  0  0  0  0  0  0  0  0  0  0  0
   34.0490   45.9820   34.3260 N   0  0  0  0  0  0  0  0  0  0  0  0
   37.5580   47.9410   36.2650 C   0  0  0  0  0  0  0  0  0  0  0  0
   37.9980   48.2470   37.5590 C   0  0  0  0  0  0  0  0  0  0  0  0
   37.6870   47.9010   40.9620 C   0  0  0  0  0  0  0  0  0  0  0  0
   36.3310   47.6780   41.2620 C   0  0  0  0  0  0  0  0  0  0  0  0
   35.4170   46.9060   40.4970 C   0  0  0  0  0  0  0  0  0  0  0  0
   34.0670   46.7580   40.8560 C   0  0  0  0  0  0  0  0  0  0  0  0
   33.1480   45.9740   40.0210 C   0  0  0  0  0  0  0  0  0  0  0  0
   33.1310   46.0810   38.6330 C   0  0  0  0  0  0  0  0  0  0  0  0
   32.3000   45.3970   37.8100 N   0  0  0  0  0  0  0  0  0  0  0  0
   31.4200   44.5490   38.3670 C   0  0  0  0  0  0  0  0  0  0  0  0
   30.5470   43.8330   37.5580 C   0  0  0  0  0  0  0  0  0  0  0  0
   29.6130   42.9400   38.0920 C   0  0  0  0  0  0  0  0  0  0  0  0
   29.5470   42.7500   39.4680 C   0  0  0  0  0  0  0  0  0  0  0  0
   30.4110   43.4540   40.3020 C   0  0  0  0  0  0  0  0  0  0  0  0
   31.3450   44.3560   39.7620 C   0  0  0  0  0  0  0  0  0  0  0  0
   32.2250   45.0830   40.5790 C   0  0  0  0  0  0  0  0  0  0  0  0
   33.6440   47.3760   42.0330 C   0  0  0  0  0  0  0  0  0  0  0  0
   34.5490   48.0850   42.8310 C   0  0  0  0  0  0  0  0  0  0  0  0
   35.8840   48.2290   42.4860 C   0  0  0  0  0  0  0  0  0  0  0  0
   36.6910   48.8680   43.3620 N   0  0  0  0  0  0  0  0  0  0  0  0
   38.0110   48.9520   43.0880 C   0  0  0  0  0  0  0  0  0  0  0  0
   38.5270   48.4720   41.9170 C   0  0  0  0  0  0  0  0  0  0  0  0
  1  2  1  0
  2  3  1  0
  3  4  2  0
  3  5  1  0
  5  6  1  0
  6  7  2  0
  7  8  1  0
  8  9  2  0
  9 10  1  0
 10 11  1  0
 10 12  1  0
 10 13  1  0
 13 14  3  0
  9 15  1  0
 15 16  2  0
  5 17  1  0
 17 18  2  0
 18 19  1  0
 19 20  2  0
 20 21  1  0
 21 22  2  0
 22 23  1  0
 23 24  2  0
 24 25  1  0
 25 26  2  0
 26 27  1  0
 27 28  2  0
 28 29  1  0
 29 30  2  0
 20 31  1  0
 31 32  2  0
 32 33  1  0
 33 34  2  0
 34 35  1  0
 35 36  2  0
 36  2  1  0
 16  6  1  0
 36 17  1  0
 33 18  1  0
 30 21  1  0
 29 24  1  0
M  END
$$$$
