VMAMUMCPDDDNRL-HDJSIYSDSA-N
     RDKit          3D

 28 31  0  0  0  0  0  0  0  0999 V2000
   -6.3290   17.8690   17.7050 C   0  0  0  0  0  0  0  0  0  0  0  0
   -6.4550   18.8430   18.7320 O   0  0  0  0  0  0  0  0  0  0  0  0
   -6.6850   18.2750   20.0270 C   0  0  0  0  0  0  0  0  0  0  0  0
   -8.1120   18.5250   20.5290 C   0  0  0  0  0  0  0  0  0  0  0  0
   -8.9290   17.3310   20.4690 N   0  0  0  0  0  0  0  0  0  0  0  0
   -9.9090   17.1360   19.5220 C   0  0  0  0  0  0  0  0  0  0  0  0
  -10.1180   17.9520   18.6280 O   0  0  0  0  0  0  0  0  0  0  0  0
  -10.6280   15.8780   19.7030 C   0  0  0  0  0  0  0  0  0  0  0  0
   -9.9780   14.7150   19.6470 N   0  0  0  0  0  0  0  0  0  0  0  0
  -10.9400   13.7450   19.7000 C   0  0  0  0  0  0  0  0  0  0  0  0
  -10.8590   12.3420   19.6340 C   0  0  0  0  0  0  0  0  0  0  0  0
  -11.9640   11.5350   19.6640 N   0  0  0  0  0  0  0  0  0  0  0  0
  -13.1370   12.1860   19.7360 C   0  0  0  0  0  0  0  0  0  0  0  0
  -14.3900   11.6390   19.7380 N   0  0  0  0  0  0  0  0  0  0  0  0
  -15.3320   12.6470   19.7730 C   0  0  0  0  0  0  0  0  0  0  0  0
  -14.6770   13.8670   19.8090 C   0  0  0  0  0  0  0  0  0  0  0  0
  -13.2970   13.5520   19.8110 C   0  0  0  0  0  0  0  0  0  0  0  0
  -12.1810   14.3360   19.8200 C   0  0  0  0  0  0  0  0  0  0  0  0
  -11.9880   15.6720   19.9410 N   0  0  0  0  0  0  0  0  0  0  0  0
  -12.9640   16.6720   20.3610 C   0  0  2  0  0  0  0  0  0  0  0  0
  -13.6090   16.3460   21.7130 C   0  0  0  0  0  0  0  0  0  0  0  0
  -14.5730   17.4420   22.1640 C   0  0  0  0  0  0  0  0  0  0  0  0
  -15.6260   17.7640   21.0870 C   0  0  1  0  0  0  0  0  0  0  0  0
  -16.5800   18.8860   21.5350 C   0  0  0  0  0  0  0  0  0  0  0  0
  -17.9920   18.4810   21.4660 C   0  0  0  0  0  0  0  0  0  0  0  0
  -19.1070   18.1650   21.4180 N   0  0  0  0  0  0  0  0  0  0  0  0
  -14.9310   18.1640   19.7750 C   0  0  0  0  0  0  0  0  0  0  0  0
  -13.9810   17.0740   19.2770 C   0  0  0  0  0  0  0  0  0  0  0  0
  1  2  1  0
  2  3  1  0
  3  4  1  0
  4  5  1  0
  5  6  1  0
  6  7  2  0
  6  8  1  0
  8  9  2  0
  9 10  1  0
 10 11  2  0
 11 12  1  0
 12 13  2  0
 13 14  1  0
 14 15  1  0
 15 16  2  0
 16 17  1  0
 17 18  2  0
 18 19  1  0
 20 19  1  1
 20 21  1  0
 21 22  1  0
 22 23  1  0
 23 24  1  6
 24 25  1  0
 25 26  3  0
 23 27  1  0
 27 28  1  0
 19  8  1  0
 28 20  1  0
 18 10  1  0
 17 13  1  0
M  END
$$$$
