OBNPHXKERYVVBP-UHFFFAOYSA-N
     RDKit          3D

 32 35  0  0  0  0  0  0  0  0999 V2000
   49.3110  -38.3490  107.3670 C   0  0  0  0  0  0  0  0  0  0  0  0
   48.6170  -39.6520  106.9890 C   0  0  0  0  0  0  0  0  0  0  0  0
   48.0320  -40.4430  108.1720 C   0  0  1  0  0  0  0  0  0  0  0  0
   47.3990  -39.5380  109.2400 C   0  0  0  0  0  0  0  0  0  0  0  0
   45.9630  -39.1820  108.9260 C   0  0  0  0  0  0  0  0  0  0  0  0
   44.9100  -39.8820  109.5280 C   0  0  0  0  0  0  0  0  0  0  0  0
   43.5840  -39.5660  109.2260 C   0  0  0  0  0  0  0  0  0  0  0  0
   43.2860  -38.5430  108.3170 C   0  0  0  0  0  0  0  0  0  0  0  0
   41.8550  -38.2160  107.9730 C   0  0  0  0  0  0  0  0  0  0  0  0
   41.1300  -39.4250  107.3740 C   0  0  0  0  0  0  0  0  0  0  0  0
   41.6020  -39.7180  105.9720 C   0  0  0  0  0  0  0  0  0  0  0  0
   42.8160  -40.3650  105.7490 C   0  0  0  0  0  0  0  0  0  0  0  0
   43.2610  -40.6200  104.4430 C   0  0  0  0  0  0  0  0  0  0  0  0
   42.5150  -40.2350  103.3180 C   0  0  0  0  0  0  0  0  0  0  0  0
   42.9710  -40.4970  101.9860 N   0  0  0  0  0  0  0  0  0  0  0  0
   42.6370  -39.7490  100.8710 C   0  0  0  0  0  0  0  0  0  0  0  0
   41.9380  -38.7620  100.7230 O   0  0  0  0  0  0  0  0  0  0  0  0
   43.3090  -40.3530   99.7260 C   0  0  0  0  0  0  0  0  0  0  0  0
   43.3050  -39.9900   98.3910 C   0  0  0  0  0  0  0  0  0  0  0  0
   44.0560  -40.7730   97.5100 C   0  0  0  0  0  0  0  0  0  0  0  0
   44.7840  -41.8850   97.9770 C   0  0  0  0  0  0  0  0  0  0  0  0
   44.7720  -42.2300   99.3330 C   0  0  0  0  0  0  0  0  0  0  0  0
   44.0210  -41.4380  100.1820 C   0  0  0  0  0  0  0  0  0  0  0  0
   43.8080  -41.5350  101.6210 C   0  0  0  0  0  0  0  0  0  0  0  0
   44.3380  -42.4260  102.2620 O   0  0  0  0  0  0  0  0  0  0  0  0
   41.2980  -39.5800  103.5650 C   0  0  0  0  0  0  0  0  0  0  0  0
   40.8470  -39.3230  104.8680 C   0  0  0  0  0  0  0  0  0  0  0  0
   44.3390  -37.8490  107.7090 C   0  0  0  0  0  0  0  0  0  0  0  0
   45.6650  -38.1650  108.0130 C   0  0  0  0  0  0  0  0  0  0  0  0
   47.0360  -41.4630  107.6620 C   0  0  0  0  0  0  0  0  0  0  0  0
   46.3910  -41.4120  106.6280 O   0  0  0  0  0  0  0  0  0  0  0  0
   46.9340  -42.5320  108.4760 O   0  0  0  0  0  0  0  0  0  0  0  0
  1  2  1  0
  3  2  1  6
  3  4  1  0
  4  5  1  0
  5  6  2  0
  6  7  1  0
  7  8  2  0
  8  9  1  0
  9 10  1  0
 10 11  1  0
 11 12  2  0
 12 13  1  0
 13 14  2  0
 14 15  1  0
 15 16  1  0
 16 17  2  0
 16 18  1  0
 18 19  2  0
 19 20  1  0
 20 21  2  0
 21 22  1  0
 22 23  2  0
 23 24  1  0
 24 25  2  0
 14 26  1  0
 26 27  2  0
  8 28  1  0
 28 29  2  0
  3 30  1  0
 30 31  2  0
 30 32  1  0
 29  5  1  0
 27 11  1  0
 24 15  1  0
 23 18  1  0
M  END
$$$$
