DLPSDPPZXRJQOY-UHFFFAOYSA-N
     RDKit          3D

 25 27  0  0  0  0  0  0  0  0999 V2000
   16.4390   31.0930    6.5570 C   0  0  0  0  0  0  0  0  0  0  0  0
   16.5510   31.8940    7.7760 C   0  0  0  0  0  0  0  0  0  0  0  0
   16.6510   32.5590    8.7720 C   0  0  0  0  0  0  0  0  0  0  0  0
   16.7740   33.3570    9.9750 C   0  0  0  0  0  0  0  0  0  0  0  0
   16.8360   34.5720    9.8640 O   0  0  0  0  0  0  0  0  0  0  0  0
   16.8050   32.6200   11.1270 N   0  0  0  0  0  0  0  0  0  0  0  0
   16.9220   33.0730   12.4370 C   0  0  0  0  0  0  0  0  0  0  0  0
   18.0590   32.9380   13.2150 C   0  0  0  0  0  0  0  0  0  0  0  0
   18.0640   33.4070   14.5560 C   0  0  0  0  0  0  0  0  0  0  0  0
   19.1330   33.3170   15.4670 C   0  0  0  0  0  0  0  0  0  0  0  0
   20.3250   32.6270   15.2200 N   0  0  0  0  0  0  0  0  0  0  0  0
   21.5540   33.0310   14.6690 C   0  0  0  0  0  0  0  0  0  0  0  0
   22.7320   32.4360   15.1460 C   0  0  0  0  0  0  0  0  0  0  0  0
   23.9800   32.8140   14.6460 C   0  0  0  0  0  0  0  0  0  0  0  0
   24.0580   33.7910   13.6600 C   0  0  0  0  0  0  0  0  0  0  0  0
   25.2650   34.1370   13.1880 F   0  0  0  0  0  0  0  0  0  0  0  0
   22.9010   34.3860   13.1670 C   0  0  0  0  0  0  0  0  0  0  0  0
   22.9860   35.5870   11.9350 Cl  0  0  0  0  0  0  0  0  0  0  0  0
   21.6520   34.0040   13.6650 C   0  0  0  0  0  0  0  0  0  0  0  0
   19.0980   33.9080   16.6770 N   0  0  0  0  0  0  0  0  0  0  0  0
   17.9610   34.5190   17.0190 C   0  0  0  0  0  0  0  0  0  0  0  0
   16.8640   34.6120   16.2650 N   0  0  0  0  0  0  0  0  0  0  0  0
   16.9330   34.0660   15.0410 C   0  0  0  0  0  0  0  0  0  0  0  0
   15.8580   34.1500   14.1740 C   0  0  0  0  0  0  0  0  0  0  0  0
   15.8120   33.6690   12.9030 N   0  0  0  0  0  0  0  0  0  0  0  0
  1  2  1  0
  2  3  3  0
  3  4  1  0
  4  5  2  0
  4  6  1  0
  6  7  1  0
  7  8  2  0
  8  9  1  0
  9 10  2  0
 10 11  1  0
 11 12  1  0
 12 13  2  0
 13 14  1  0
 14 15  2  0
 15 16  1  0
 15 17  1  0
 17 18  1  0
 17 19  2  0
 10 20  1  0
 20 21  2  0
 21 22  1  0
 22 23  2  0
 23 24  1  0
 24 25  2  0
 25  7  1  0
 23  9  1  0
 19 12  1  0
M  END
$$$$
