BRZYOTMFHLERHD-BBWFWOEESA-N
     RDKit          3D

 29 30  0  0  0  0  0  0  0  0999 V2000
   -3.6630    8.6900   28.6250 N   0  0  0  0  0  0  0  0  0  0  0  0
   -2.4690    8.4180   28.0700 C   0  0  0  0  0  0  0  0  0  0  0  0
   -1.8310    7.4280   28.7190 N   0  0  0  0  0  0  0  0  0  0  0  0
   -2.0980    9.0930   27.0510 N   0  0  0  0  0  0  0  0  0  0  0  0
   -0.7920    8.8570   26.4420 C   0  0  0  0  0  0  0  0  0  0  0  0
   -0.6550    9.6810   25.1570 C   0  0  0  0  0  0  0  0  0  0  0  0
   -1.6890   10.8050   25.0400 C   0  0  0  0  0  0  0  0  0  0  0  0
   -1.4790   11.7810   23.8680 C   0  0  1  0  0  0  0  0  0  0  0  0
   -0.0150   11.9730   23.4270 C   0  0  0  0  0  0  0  0  0  0  0  0
    0.1780   11.9720   21.6470 Cl  0  0  0  0  0  0  0  0  0  0  0  0
   -2.2940   11.3590   22.7350 N   0  0  0  0  0  0  0  0  0  0  0  0
   -3.1050   12.2260   22.0240 C   0  0  0  0  0  0  0  0  0  0  0  0
   -3.3230   13.3840   22.3870 O   0  0  0  0  0  0  0  0  0  0  0  0
   -3.8300   11.6000   20.8120 C   0  0  2  0  0  0  0  0  0  0  0  0
   -3.2030   12.0830   19.5010 C   0  0  0  0  0  0  0  0  0  0  0  0
   -4.0210   13.3280   19.1530 C   0  0  0  0  0  0  0  0  0  0  0  0
   -5.4270   12.9610   19.6060 C   0  0  0  0  0  0  0  0  0  0  0  0
   -5.2310   12.0270   20.7080 N   0  0  0  0  0  0  0  0  0  0  0  0
   -6.2000   11.4780   21.5270 C   0  0  0  0  0  0  0  0  0  0  0  0
   -6.5970   12.0730   22.5310 O   0  0  0  0  0  0  0  0  0  0  0  0
   -6.8130   10.1290   21.0840 C   0  0  2  0  0  0  0  0  0  0  0  0
   -7.9420    9.8140   21.9940 N   0  0  0  0  0  0  0  0  0  0  0  0
   -5.7280    9.0320   21.0940 C   0  0  0  0  0  0  0  0  0  0  0  0
   -5.7920    8.1050   19.9010 C   0  0  0  0  0  0  0  0  0  0  0  0
   -4.7290    8.0410   18.9830 C   0  0  0  0  0  0  0  0  0  0  0  0
   -4.7960    7.1870   17.8800 C   0  0  0  0  0  0  0  0  0  0  0  0
   -5.9160    6.3830   17.6850 C   0  0  0  0  0  0  0  0  0  0  0  0
   -6.9760    6.4340   18.5930 C   0  0  0  0  0  0  0  0  0  0  0  0
   -6.9150    7.2890   19.6980 C   0  0  0  0  0  0  0  0  0  0  0  0
  1  2  1  0
  2  3  1  0
  2  4  2  3
  4  5  1  0
  5  6  1  0
  6  7  1  0
  8  7  1  1
  8  9  1  0
  9 10  1  0
  8 11  1  0
 11 12  1  0
 12 13  2  0
 14 12  1  1
 14 15  1  0
 15 16  1  0
 16 17  1  0
 17 18  1  0
 18 19  1  0
 19 20  2  0
 19 21  1  0
 21 22  1  1
 21 23  1  0
 23 24  1  0
 24 25  2  0
 25 26  1  0
 26 27  2  0
 27 28  1  0
 28 29  2  0
 18 14  1  0
 29 24  1  0
M  END
$$$$
