
 OpenBabel08262610243D

 31 32  0  0  0  0  0  0  0  0999 V2000
   14.1170   36.0900  127.3350 S   0  0  0  0  0  0  0  0  0  0  0  0
   13.0990   35.1530  126.8670 O   0  0  0  0  0  0  0  0  0  0  0  0
   13.6460   37.0530  128.3310 O   0  0  0  0  0  0  0  0  0  0  0  0
   15.5730   35.5310  127.6000 N   0  0  0  0  0  0  0  0  0  0  0  0
   16.2590   35.0100  126.5900 C   0  0  0  0  0  0  0  0  0  0  0  0
   17.5780   34.8450  126.9800 N   0  0  0  0  0  0  0  0  0  0  0  0
   15.8530   34.6690  125.4830 O   0  0  0  0  0  0  0  0  0  0  0  0
   17.6400   34.8120  127.9850 H   0  0  0  0  0  0  0  0  0  0  0  0
   18.5760   34.2130  126.2050 C   0  0  0  0  0  0  0  0  0  0  0  0
   18.9060   32.8460  126.4070 C   0  0  0  0  0  0  0  0  0  0  0  0
   19.9460   32.2830  125.6400 C   0  0  0  0  0  0  0  0  0  0  0  0
   20.6130   33.0340  124.6830 C   0  0  0  0  0  0  0  0  0  0  0  0
   19.2160   34.9670  125.1780 C   0  0  0  0  0  0  0  0  0  0  0  0
   20.2510   34.3550  124.4460 C   0  0  0  0  0  0  0  0  0  0  0  0
   21.8790   32.3170  123.7610 Cl  0  0  0  0  0  0  0  0  0  0  0  0
   18.1140   31.9210  127.3340 C   0  0  0  0  0  0  0  0  0  0  0  0
   18.8440   31.6530  128.6550 C   0  0  0  0  0  0  0  0  0  0  0  0
   17.7830   30.5960  126.6320 C   0  0  0  0  0  0  0  0  0  0  0  0
   18.8860   36.4390  124.9250 C   0  0  0  0  0  0  0  0  0  0  0  0
   20.1710   37.2350  124.6730 C   0  0  0  0  0  0  0  0  0  0  0  0
   17.8860   36.6880  123.7850 C   0  0  0  0  0  0  0  0  0  0  0  0
   14.3160   37.1870  125.8910 C   0  0  0  0  0  0  0  0  0  0  0  0
   13.6960   37.1570  124.6480 C   0  0  0  0  0  0  0  0  0  0  0  0
   15.1940   38.2490  125.8980 O   0  0  0  0  0  0  0  0  0  0  0  0
   14.1930   38.2400  123.8710 C   0  0  0  0  0  0  0  0  0  0  0  0
   15.1160   38.8570  124.6920 C   0  0  0  0  0  0  0  0  0  0  0  0
   13.8280   38.6270  122.4660 C   0  0  0  0  0  0  0  0  0  0  0  0
   14.7740   38.0230  121.4210 C   0  0  0  0  0  0  0  0  0  0  0  0
   13.7910   40.1490  122.3080 C   0  0  0  0  0  0  0  0  0  0  0  0
   12.5110   38.1440  122.1440 O   0  0  0  0  0  0  0  0  0  0  0  0
   12.5180   37.1980  122.3730 H   0  0  0  0  0  0  0  0  0  0  0  0
  1  4  1  0  0  0  0
  1  3  2  0  0  0  0
  2  1  2  0  0  0  0
  5  6  1  0  0  0  0
  5  4  1  0  0  0  0
  6  8  1  0  0  0  0
  7  5  2  0  0  0  0
  9 10  1  0  0  0  0
  9  6  1  0  0  0  0
 10 16  1  0  0  0  0
 11 10  2  0  0  0  0
 12 11  1  0  0  0  0
 13  9  2  0  0  0  0
 14 12  2  0  0  0  0
 14 13  1  0  0  0  0
 15 12  1  0  0  0  0
 16 17  1  0  0  0  0
 18 16  1  0  0  0  0
 19 13  1  0  0  0  0
 20 19  1  0  0  0  0
 21 19  1  0  0  0  0
 22 24  1  0  0  0  0
 22  1  1  0  0  0  0
 23 22  2  0  0  0  0
 25 23  1  0  0  0  0
 25 26  2  0  0  0  0
 26 24  1  0  0  0  0
 27 25  1  0  0  0  0
 28 27  1  0  0  0  0
 29 27  1  0  0  0  0
 30 31  1  0  0  0  0
 30 27  1  0  0  0  0
M  END
>  <minimizedAffinity>
-9.02397633

>  <CNNscore>
0.965586543

>  <CNNaffinity>
7.41119528

$$$$

 OpenBabel08262610243D

 31 32  0  0  0  0  0  0  0  0999 V2000
   14.0800   36.0740  127.3060 S   0  0  0  0  0  0  0  0  0  0  0  0
   13.0520   35.1490  126.8340 O   0  0  0  0  0  0  0  0  0  0  0  0
   13.6170   37.0380  128.3040 O   0  0  0  0  0  0  0  0  0  0  0  0
   15.5290   35.4980  127.5710 N   0  0  0  0  0  0  0  0  0  0  0  0
   16.2360   35.0320  126.5490 C   0  0  0  0  0  0  0  0  0  0  0  0
   17.5550   34.8820  126.9460 N   0  0  0  0  0  0  0  0  0  0  0  0
   15.8480   34.7240  125.4260 O   0  0  0  0  0  0  0  0  0  0  0  0
   17.6080   34.8110  127.9500 H   0  0  0  0  0  0  0  0  0  0  0  0
   18.5750   34.3030  126.1580 C   0  0  0  0  0  0  0  0  0  0  0  0
   19.2490   35.0580  125.1600 C   0  0  0  0  0  0  0  0  0  0  0  0
   20.2210   34.4120  124.3690 C   0  0  0  0  0  0  0  0  0  0  0  0
   20.5420   33.0790  124.5800 C   0  0  0  0  0  0  0  0  0  0  0  0
   18.9500   32.9530  126.4200 C   0  0  0  0  0  0  0  0  0  0  0  0
   19.9250   32.3580  125.5960 C   0  0  0  0  0  0  0  0  0  0  0  0
   21.7370   32.3200  123.5980 Cl  0  0  0  0  0  0  0  0  0  0  0  0
   19.0530   36.5640  124.9740 C   0  0  0  0  0  0  0  0  0  0  0  0
   18.0040   36.8900  123.9050 C   0  0  0  0  0  0  0  0  0  0  0  0
   20.3860   37.2500  124.6380 C   0  0  0  0  0  0  0  0  0  0  0  0
   18.2540   32.1080  127.4890 C   0  0  0  0  0  0  0  0  0  0  0  0
   17.7910   30.7750  126.8940 C   0  0  0  0  0  0  0  0  0  0  0  0
   19.0910   31.8530  128.7520 C   0  0  0  0  0  0  0  0  0  0  0  0
   14.2930   37.1730  125.8650 C   0  0  0  0  0  0  0  0  0  0  0  0
   13.7120   37.1220  124.6040 C   0  0  0  0  0  0  0  0  0  0  0  0
   15.1410   38.2590  125.8960 O   0  0  0  0  0  0  0  0  0  0  0  0
   14.2020   38.2180  123.8400 C   0  0  0  0  0  0  0  0  0  0  0  0
   15.0820   38.8610  124.6870 C   0  0  0  0  0  0  0  0  0  0  0  0
   13.8700   38.5920  122.4230 C   0  0  0  0  0  0  0  0  0  0  0  0
   14.8290   37.9640  121.4040 C   0  0  0  0  0  0  0  0  0  0  0  0
   13.8540   40.1120  122.2460 C   0  0  0  0  0  0  0  0  0  0  0  0
   12.5550   38.1200  122.0800 O   0  0  0  0  0  0  0  0  0  0  0  0
   12.5460   37.1760  122.3210 H   0  0  0  0  0  0  0  0  0  0  0  0
  1  4  1  0  0  0  0
  1  3  2  0  0  0  0
  2  1  2  0  0  0  0
  5  6  1  0  0  0  0
  5  4  1  0  0  0  0
  6  8  1  0  0  0  0
  7  5  2  0  0  0  0
  9 13  1  0  0  0  0
  9  6  1  0  0  0  0
 10  9  2  0  0  0  0
 11 12  2  0  0  0  0
 11 10  1  0  0  0  0
 12 14  1  0  0  0  0
 13 19  1  0  0  0  0
 14 13  2  0  0  0  0
 15 12  1  0  0  0  0
 16 10  1  0  0  0  0
 17 16  1  0  0  0  0
 18 16  1  0  0  0  0
 19 21  1  0  0  0  0
 20 19  1  0  0  0  0
 22 24  1  0  0  0  0
 22  1  1  0  0  0  0
 23 22  2  0  0  0  0
 25 23  1  0  0  0  0
 25 26  2  0  0  0  0
 26 24  1  0  0  0  0
 27 25  1  0  0  0  0
 28 27  1  0  0  0  0
 29 27  1  0  0  0  0
 30 31  1  0  0  0  0
 30 27  1  0  0  0  0
M  END
>  <minimizedAffinity>
-8.9764185

>  <CNNscore>
0.956785917

>  <CNNaffinity>
7.3516593

$$$$

 OpenBabel08262610243D

 31 32  0  0  0  0  0  0  0  0999 V2000
   14.2530   36.0840  127.3640 S   0  0  0  0  0  0  0  0  0  0  0  0
   13.1690   35.4330  126.6310 O   0  0  0  0  0  0  0  0  0  0  0  0
   13.8150   36.9110  128.4890 O   0  0  0  0  0  0  0  0  0  0  0  0
   15.5700   35.2500  127.6360 N   0  0  0  0  0  0  0  0  0  0  0  0
   16.3420   34.9100  126.6100 C   0  0  0  0  0  0  0  0  0  0  0  0
   17.5930   34.5540  127.0890 N   0  0  0  0  0  0  0  0  0  0  0  0
   16.0540   34.8560  125.4180 O   0  0  0  0  0  0  0  0  0  0  0  0
   17.5310   34.2950  128.0600 H   0  0  0  0  0  0  0  0  0  0  0  0
   18.6400   34.0280  126.2990 C   0  0  0  0  0  0  0  0  0  0  0  0
   19.4730   34.8800  125.5240 C   0  0  0  0  0  0  0  0  0  0  0  0
   20.4680   34.2940  124.7160 C   0  0  0  0  0  0  0  0  0  0  0  0
   20.6570   32.9200  124.6990 C   0  0  0  0  0  0  0  0  0  0  0  0
   18.8750   32.6230  126.3340 C   0  0  0  0  0  0  0  0  0  0  0  0
   19.8800   32.0920  125.5020 C   0  0  0  0  0  0  0  0  0  0  0  0
   21.8830   32.2350  123.7010 Cl  0  0  0  0  0  0  0  0  0  0  0  0
   19.4210   36.4070  125.6090 C   0  0  0  0  0  0  0  0  0  0  0  0
   20.0110   37.0820  124.3660 C   0  0  0  0  0  0  0  0  0  0  0  0
   20.1330   36.9080  126.8750 C   0  0  0  0  0  0  0  0  0  0  0  0
   18.0050   31.6730  127.1590 C   0  0  0  0  0  0  0  0  0  0  0  0
   17.8160   30.3460  126.4160 C   0  0  0  0  0  0  0  0  0  0  0  0
   18.5150   31.4060  128.5830 C   0  0  0  0  0  0  0  0  0  0  0  0
   14.7790   37.3800  126.1920 C   0  0  0  0  0  0  0  0  0  0  0  0
   15.7590   38.3570  126.3150 C   0  0  0  0  0  0  0  0  0  0  0  0
   14.1870   37.5280  124.9570 O   0  0  0  0  0  0  0  0  0  0  0  0
   15.7840   39.1200  125.1150 C   0  0  0  0  0  0  0  0  0  0  0  0
   14.7880   38.5690  124.3350 C   0  0  0  0  0  0  0  0  0  0  0  0
   16.6690   40.2830  124.7650 C   0  0  0  0  0  0  0  0  0  0  0  0
   17.1580   40.2400  123.3120 C   0  0  0  0  0  0  0  0  0  0  0  0
   17.8710   40.3610  125.7100 C   0  0  0  0  0  0  0  0  0  0  0  0
   15.9470   41.5190  124.9100 O   0  0  0  0  0  0  0  0  0  0  0  0
   15.1230   41.4000  124.4040 H   0  0  0  0  0  0  0  0  0  0  0  0
  1  4  1  0  0  0  0
  1  3  2  0  0  0  0
  2  1  2  0  0  0  0
  5  6  1  0  0  0  0
  5  4  1  0  0  0  0
  6  8  1  0  0  0  0
  7  5  2  0  0  0  0
  9 13  1  0  0  0  0
  9  6  1  0  0  0  0
 10 16  1  0  0  0  0
 10  9  2  0  0  0  0
 11 10  1  0  0  0  0
 12 11  2  0  0  0  0
 12 14  1  0  0  0  0
 13 19  1  0  0  0  0
 14 13  2  0  0  0  0
 15 12  1  0  0  0  0
 16 18  1  0  0  0  0
 17 16  1  0  0  0  0
 19 21  1  0  0  0  0
 20 19  1  0  0  0  0
 22 23  2  0  0  0  0
 22  1  1  0  0  0  0
 24 22  1  0  0  0  0
 25 23  1  0  0  0  0
 26 24  1  0  0  0  0
 26 25  2  0  0  0  0
 27 30  1  0  0  0  0
 27 25  1  0  0  0  0
 27 29  1  0  0  0  0
 28 27  1  0  0  0  0
 31 30  1  0  0  0  0
M  END
>  <minimizedAffinity>
-8.43828106

>  <CNNscore>
0.952039182

>  <CNNaffinity>
7.11780596

$$$$

 OpenBabel08262610243D

 31 32  0  0  0  0  0  0  0  0999 V2000
   12.4260   40.4720  122.9900 S   0  0  0  0  0  0  0  0  0  0  0  0
   13.6440   41.2710  122.8700 O   0  0  0  0  0  0  0  0  0  0  0  0
   11.7890   40.1410  121.7150 O   0  0  0  0  0  0  0  0  0  0  0  0
   12.4090   39.3030  124.0560 N   0  0  0  0  0  0  0  0  0  0  0  0
   13.5480   38.9380  124.6330 C   0  0  0  0  0  0  0  0  0  0  0  0
   13.8550   37.6450  124.2430 N   0  0  0  0  0  0  0  0  0  0  0  0
   14.2800   39.5960  125.3660 O   0  0  0  0  0  0  0  0  0  0  0  0
   13.3790   37.4200  123.3830 H   0  0  0  0  0  0  0  0  0  0  0  0
   15.0500   36.9650  124.5680 C   0  0  0  0  0  0  0  0  0  0  0  0
   16.2100   37.0910  123.7570 C   0  0  0  0  0  0  0  0  0  0  0  0
   17.3570   36.3490  124.1030 C   0  0  0  0  0  0  0  0  0  0  0  0
   17.3700   35.5390  125.2290 C   0  0  0  0  0  0  0  0  0  0  0  0
   15.0840   36.1860  125.7610 C   0  0  0  0  0  0  0  0  0  0  0  0
   16.2550   35.4620  126.0550 C   0  0  0  0  0  0  0  0  0  0  0  0
   18.7900   34.6460  125.6250 Cl  0  0  0  0  0  0  0  0  0  0  0  0
   16.3140   38.0780  122.5920 C   0  0  0  0  0  0  0  0  0  0  0  0
   16.5660   39.5140  123.0630 C   0  0  0  0  0  0  0  0  0  0  0  0
   15.0570   38.0190  121.7120 C   0  0  0  0  0  0  0  0  0  0  0  0
   13.8580   36.0300  126.6650 C   0  0  0  0  0  0  0  0  0  0  0  0
   13.8300   37.1430  127.7170 C   0  0  0  0  0  0  0  0  0  0  0  0
   12.5140   35.9780  125.9230 C   0  0  0  0  0  0  0  0  0  0  0  0
   11.2360   41.6900  123.6430 C   0  0  0  0  0  0  0  0  0  0  0  0
    9.8490   41.6400  123.7170 C   0  0  0  0  0  0  0  0  0  0  0  0
   11.6430   42.8970  124.1700 O   0  0  0  0  0  0  0  0  0  0  0  0
    9.3880   42.8430  124.3210 C   0  0  0  0  0  0  0  0  0  0  0  0
   10.5370   43.5710  124.5580 C   0  0  0  0  0  0  0  0  0  0  0  0
    7.9750   43.2570  124.6190 C   0  0  0  0  0  0  0  0  0  0  0  0
    6.9490   42.1830  124.2330 C   0  0  0  0  0  0  0  0  0  0  0  0
    7.6290   44.5740  123.9190 C   0  0  0  0  0  0  0  0  0  0  0  0
    7.8100   43.4810  126.0300 O   0  0  0  0  0  0  0  0  0  0  0  0
    8.1550   42.6800  126.4640 H   0  0  0  0  0  0  0  0  0  0  0  0
  1 22  1  0  0  0  0
  1  4  1  0  0  0  0
  2  1  2  0  0  0  0
  3  1  2  0  0  0  0
  4  5  1  0  0  0  0
  5  7  2  0  0  0  0
  6  9  1  0  0  0  0
  6  5  1  0  0  0  0
  8  6  1  0  0  0  0
  9 13  1  0  0  0  0
 10 11  1  0  0  0  0
 10  9  2  0  0  0  0
 11 12  2  0  0  0  0
 12 15  1  0  0  0  0
 12 14  1  0  0  0  0
 13 14  2  0  0  0  0
 13 19  1  0  0  0  0
 16 17  1  0  0  0  0
 16 10  1  0  0  0  0
 18 16  1  0  0  0  0
 19 20  1  0  0  0  0
 21 19  1  0  0  0  0
 22 23  2  0  0  0  0
 22 24  1  0  0  0  0
 23 25  1  0  0  0  0
 24 26  1  0  0  0  0
 25 26  2  0  0  0  0
 25 27  1  0  0  0  0
 27 30  1  0  0  0  0
 28 27  1  0  0  0  0
 29 27  1  0  0  0  0
 30 31  1  0  0  0  0
M  END
>  <minimizedAffinity>
-8.97849655

>  <CNNscore>
0.205392122

>  <CNNaffinity>
4.46505499

$$$$

 OpenBabel08262610243D

 31 32  0  0  0  0  0  0  0  0999 V2000
   15.8030   35.7740  126.2440 S   0  0  0  0  0  0  0  0  0  0  0  0
   15.3680   35.9010  127.6330 O   0  0  0  0  0  0  0  0  0  0  0  0
   14.8650   35.0620  125.3760 O   0  0  0  0  0  0  0  0  0  0  0  0
   16.5020   37.0230  125.5700 N   0  0  0  0  0  0  0  0  0  0  0  0
   15.8210   38.1570  125.4470 C   0  0  0  0  0  0  0  0  0  0  0  0
   16.2490   38.8160  124.3060 N   0  0  0  0  0  0  0  0  0  0  0  0
   14.9230   38.5920  126.1610 O   0  0  0  0  0  0  0  0  0  0  0  0
   16.6820   38.1640  123.6720 H   0  0  0  0  0  0  0  0  0  0  0  0
   15.6720   39.9990  123.7940 C   0  0  0  0  0  0  0  0  0  0  0  0
   14.6830   39.9520  122.7740 C   0  0  0  0  0  0  0  0  0  0  0  0
   14.1810   41.1660  122.2650 C   0  0  0  0  0  0  0  0  0  0  0  0
   14.6140   42.3840  122.7690 C   0  0  0  0  0  0  0  0  0  0  0  0
   16.0680   41.2470  124.3570 C   0  0  0  0  0  0  0  0  0  0  0  0
   15.5380   42.4290  123.8070 C   0  0  0  0  0  0  0  0  0  0  0  0
   13.9790   43.8520  122.1270 Cl  0  0  0  0  0  0  0  0  0  0  0  0
   14.0520   38.6480  122.2790 C   0  0  0  0  0  0  0  0  0  0  0  0
   13.0800   38.0450  123.2990 C   0  0  0  0  0  0  0  0  0  0  0  0
   15.1350   37.6240  121.9080 C   0  0  0  0  0  0  0  0  0  0  0  0
   17.1250   41.3410  125.4600 C   0  0  0  0  0  0  0  0  0  0  0  0
   18.5310   41.2560  124.8570 C   0  0  0  0  0  0  0  0  0  0  0  0
   17.0150   42.5870  126.3530 C   0  0  0  0  0  0  0  0  0  0  0  0
   17.1340   34.5330  126.3740 C   0  0  0  0  0  0  0  0  0  0  0  0
   17.3360   33.5280  127.3120 C   0  0  0  0  0  0  0  0  0  0  0  0
   18.1700   34.4790  125.4670 O   0  0  0  0  0  0  0  0  0  0  0  0
   18.5210   32.8220  126.9650 C   0  0  0  0  0  0  0  0  0  0  0  0
   18.9870   33.4660  125.8360 C   0  0  0  0  0  0  0  0  0  0  0  0
   19.1530   31.6550  127.6690 C   0  0  0  0  0  0  0  0  0  0  0  0
   20.4440   31.1820  126.9900 C   0  0  0  0  0  0  0  0  0  0  0  0
   18.1720   30.4850  127.7810 C   0  0  0  0  0  0  0  0  0  0  0  0
   19.5160   32.0220  129.0120 O   0  0  0  0  0  0  0  0  0  0  0  0
   20.0340   32.8420  128.9270 H   0  0  0  0  0  0  0  0  0  0  0  0
  1 22  1  0  0  0  0
  1  2  2  0  0  0  0
  3  1  2  0  0  0  0
  4  1  1  0  0  0  0
  5  4  1  0  0  0  0
  5  7  2  0  0  0  0
  6  5  1  0  0  0  0
  8  6  1  0  0  0  0
  9  6  1  0  0  0  0
  9 13  1  0  0  0  0
 10  9  2  0  0  0  0
 11 12  2  0  0  0  0
 11 10  1  0  0  0  0
 12 14  1  0  0  0  0
 13 19  1  0  0  0  0
 14 13  2  0  0  0  0
 15 12  1  0  0  0  0
 16 10  1  0  0  0  0
 16 17  1  0  0  0  0
 18 16  1  0  0  0  0
 19 21  1  0  0  0  0
 20 19  1  0  0  0  0
 22 23  2  0  0  0  0
 24 26  1  0  0  0  0
 24 22  1  0  0  0  0
 25 23  1  0  0  0  0
 25 27  1  0  0  0  0
 26 25  2  0  0  0  0
 27 29  1  0  0  0  0
 27 30  1  0  0  0  0
 28 27  1  0  0  0  0
 31 30  1  0  0  0  0
M  END
>  <minimizedAffinity>
-8.07746315

>  <CNNscore>
0.170158327

>  <CNNaffinity>
6.1377964

$$$$

 OpenBabel08262610243D

 31 32  0  0  0  0  0  0  0  0999 V2000
   13.0170   39.2260  124.5990 S   0  0  0  0  0  0  0  0  0  0  0  0
   12.6830   38.3080  123.5130 O   0  0  0  0  0  0  0  0  0  0  0  0
   12.3710   38.9190  125.8750 O   0  0  0  0  0  0  0  0  0  0  0  0
   14.5180   39.7110  124.7240 N   0  0  0  0  0  0  0  0  0  0  0  0
   15.3680   39.0000  125.4560 C   0  0  0  0  0  0  0  0  0  0  0  0
   15.4660   37.7260  124.9200 N   0  0  0  0  0  0  0  0  0  0  0  0
   16.0230   39.3560  126.4310 O   0  0  0  0  0  0  0  0  0  0  0  0
   15.1800   37.7340  123.9540 H   0  0  0  0  0  0  0  0  0  0  0  0
   16.3600   36.7290  125.3680 C   0  0  0  0  0  0  0  0  0  0  0  0
   17.7200   36.7240  124.9550 C   0  0  0  0  0  0  0  0  0  0  0  0
   18.5530   35.6740  125.3920 C   0  0  0  0  0  0  0  0  0  0  0  0
   18.0700   34.6840  126.2350 C   0  0  0  0  0  0  0  0  0  0  0  0
   15.8810   35.7500  126.2860 C   0  0  0  0  0  0  0  0  0  0  0  0
   16.7560   34.7220  126.6860 C   0  0  0  0  0  0  0  0  0  0  0  0
   19.1150   33.4160  126.7540 Cl  0  0  0  0  0  0  0  0  0  0  0  0
   18.3560   37.8610  124.1520 C   0  0  0  0  0  0  0  0  0  0  0  0
   18.8350   39.0110  125.0450 C   0  0  0  0  0  0  0  0  0  0  0  0
   17.3830   38.3870  123.0850 C   0  0  0  0  0  0  0  0  0  0  0  0
   14.4260   35.7240  126.7600 C   0  0  0  0  0  0  0  0  0  0  0  0
   14.1710   36.8610  127.7550 C   0  0  0  0  0  0  0  0  0  0  0  0
   13.3820   35.7710  125.6340 C   0  0  0  0  0  0  0  0  0  0  0  0
   12.1000   40.7290  124.1220 C   0  0  0  0  0  0  0  0  0  0  0  0
   10.7370   40.9310  123.9440 C   0  0  0  0  0  0  0  0  0  0  0  0
   12.7400   41.9210  123.8610 O   0  0  0  0  0  0  0  0  0  0  0  0
   10.5280   42.2900  123.5790 C   0  0  0  0  0  0  0  0  0  0  0  0
   11.7960   42.8330  123.5320 C   0  0  0  0  0  0  0  0  0  0  0  0
    9.2320   42.9890  123.2820 C   0  0  0  0  0  0  0  0  0  0  0  0
    9.4350   44.3890  122.6910 C   0  0  0  0  0  0  0  0  0  0  0  0
    8.3580   43.0810  124.5350 C   0  0  0  0  0  0  0  0  0  0  0  0
    8.4790   42.2460  122.3050 O   0  0  0  0  0  0  0  0  0  0  0  0
    9.0950   42.0870  121.5680 H   0  0  0  0  0  0  0  0  0  0  0  0
  1  4  1  0  0  0  0
  1  3  2  0  0  0  0
  2  1  2  0  0  0  0
  4  5  1  0  0  0  0
  5  7  2  0  0  0  0
  6  9  1  0  0  0  0
  6  5  1  0  0  0  0
  8  6  1  0  0  0  0
  9 13  1  0  0  0  0
 10  9  2  0  0  0  0
 10 11  1  0  0  0  0
 11 12  2  0  0  0  0
 12 14  1  0  0  0  0
 12 15  1  0  0  0  0
 13 14  2  0  0  0  0
 13 19  1  0  0  0  0
 16 10  1  0  0  0  0
 16 17  1  0  0  0  0
 18 16  1  0  0  0  0
 19 20  1  0  0  0  0
 21 19  1  0  0  0  0
 22  1  1  0  0  0  0
 23 22  2  0  0  0  0
 24 22  1  0  0  0  0
 25 23  1  0  0  0  0
 26 25  2  0  0  0  0
 26 24  1  0  0  0  0
 27 25  1  0  0  0  0
 27 29  1  0  0  0  0
 28 27  1  0  0  0  0
 30 27  1  0  0  0  0
 31 30  1  0  0  0  0
M  END
>  <minimizedAffinity>
-8.0373373

>  <CNNscore>
0.166880339

>  <CNNaffinity>
4.94482088

$$$$

 OpenBabel08262610243D

 31 32  0  0  0  0  0  0  0  0999 V2000
   18.8530   35.4070  124.9590 S   0  0  0  0  0  0  0  0  0  0  0  0
   18.3870   34.7960  123.7150 O   0  0  0  0  0  0  0  0  0  0  0  0
   20.3010   35.5930  125.0390 O   0  0  0  0  0  0  0  0  0  0  0  0
   18.0030   36.5960  125.5640 N   0  0  0  0  0  0  0  0  0  0  0  0
   16.8300   36.8950  125.0180 C   0  0  0  0  0  0  0  0  0  0  0  0
   16.2940   37.9900  125.6770 N   0  0  0  0  0  0  0  0  0  0  0  0
   16.2720   36.3640  124.0630 O   0  0  0  0  0  0  0  0  0  0  0  0
   17.0240   38.5050  126.1420 H   0  0  0  0  0  0  0  0  0  0  0  0
   15.1090   38.6590  125.2980 C   0  0  0  0  0  0  0  0  0  0  0  0
   13.8310   38.1000  125.5700 C   0  0  0  0  0  0  0  0  0  0  0  0
   12.6860   38.7880  125.1220 C   0  0  0  0  0  0  0  0  0  0  0  0
   12.7960   40.0030  124.4610 C   0  0  0  0  0  0  0  0  0  0  0  0
   15.2210   39.9380  124.6790 C   0  0  0  0  0  0  0  0  0  0  0  0
   14.0440   40.5780  124.2480 C   0  0  0  0  0  0  0  0  0  0  0  0
   11.3770   40.8210  123.9290 Cl  0  0  0  0  0  0  0  0  0  0  0  0
   13.6300   36.8450  126.4220 C   0  0  0  0  0  0  0  0  0  0  0  0
   12.5050   35.9510  125.8900 C   0  0  0  0  0  0  0  0  0  0  0  0
   13.3640   37.2170  127.8890 C   0  0  0  0  0  0  0  0  0  0  0  0
   16.5780   40.5780  124.3740 C   0  0  0  0  0  0  0  0  0  0  0  0
   17.4250   40.6570  125.6480 C   0  0  0  0  0  0  0  0  0  0  0  0
   17.3780   39.8890  123.2580 C   0  0  0  0  0  0  0  0  0  0  0  0
   18.6330   34.0470  126.1550 C   0  0  0  0  0  0  0  0  0  0  0  0
   19.3000   32.8330  126.2670 C   0  0  0  0  0  0  0  0  0  0  0  0
   17.6840   34.1000  127.1530 O   0  0  0  0  0  0  0  0  0  0  0  0
   18.7590   32.1240  127.3760 C   0  0  0  0  0  0  0  0  0  0  0  0
   17.7660   32.9510  127.8610 C   0  0  0  0  0  0  0  0  0  0  0  0
   19.1490   30.7710  127.9000 C   0  0  0  0  0  0  0  0  0  0  0  0
   18.1060   29.6910  127.5870 C   0  0  0  0  0  0  0  0  0  0  0  0
   19.4030   30.8190  129.4090 C   0  0  0  0  0  0  0  0  0  0  0  0
   20.3750   30.3350  127.2860 O   0  0  0  0  0  0  0  0  0  0  0  0
   20.2360   30.4340  126.3270 H   0  0  0  0  0  0  0  0  0  0  0  0
  1  3  2  0  0  0  0
  1  4  1  0  0  0  0
  1 22  1  0  0  0  0
  2  1  2  0  0  0  0
  5  4  1  0  0  0  0
  5  6  1  0  0  0  0
  6  8  1  0  0  0  0
  7  5  2  0  0  0  0
  9 10  1  0  0  0  0
  9  6  1  0  0  0  0
 10 16  1  0  0  0  0
 11 10  2  0  0  0  0
 12 11  1  0  0  0  0
 13  9  2  0  0  0  0
 14 12  2  0  0  0  0
 14 13  1  0  0  0  0
 15 12  1  0  0  0  0
 16 18  1  0  0  0  0
 17 16  1  0  0  0  0
 19 13  1  0  0  0  0
 19 20  1  0  0  0  0
 21 19  1  0  0  0  0
 22 23  2  0  0  0  0
 22 24  1  0  0  0  0
 23 25  1  0  0  0  0
 24 26  1  0  0  0  0
 25 26  2  0  0  0  0
 25 27  1  0  0  0  0
 27 29  1  0  0  0  0
 28 27  1  0  0  0  0
 30 27  1  0  0  0  0
 31 30  1  0  0  0  0
M  END
>  <minimizedAffinity>
-8.57511902

>  <CNNscore>
0.149372876

>  <CNNaffinity>
5.41593552

$$$$

 OpenBabel08262610243D

 31 32  0  0  0  0  0  0  0  0999 V2000
   18.6400   35.5220  125.6720 S   0  0  0  0  0  0  0  0  0  0  0  0
   18.9170   35.6280  124.2410 O   0  0  0  0  0  0  0  0  0  0  0  0
   19.6850   36.0740  126.5340 O   0  0  0  0  0  0  0  0  0  0  0  0
   17.1640   35.8060  126.1640 N   0  0  0  0  0  0  0  0  0  0  0  0
   16.3250   36.4420  125.3550 C   0  0  0  0  0  0  0  0  0  0  0  0
   15.8860   37.5970  125.9820 N   0  0  0  0  0  0  0  0  0  0  0  0
   15.9810   36.1410  124.2160 O   0  0  0  0  0  0  0  0  0  0  0  0
   16.5360   37.8680  126.7030 H   0  0  0  0  0  0  0  0  0  0  0  0
   15.0710   38.5830  125.3810 C   0  0  0  0  0  0  0  0  0  0  0  0
   15.6390   39.6420  124.6230 C   0  0  0  0  0  0  0  0  0  0  0  0
   14.7800   40.6250  124.0910 C   0  0  0  0  0  0  0  0  0  0  0  0
   13.4070   40.5450  124.2700 C   0  0  0  0  0  0  0  0  0  0  0  0
   13.6560   38.4640  125.5100 C   0  0  0  0  0  0  0  0  0  0  0  0
   12.8470   39.4770  124.9620 C   0  0  0  0  0  0  0  0  0  0  0  0
   12.3840   41.7620  123.6050 Cl  0  0  0  0  0  0  0  0  0  0  0  0
   17.1240   39.7100  124.2600 C   0  0  0  0  0  0  0  0  0  0  0  0
   17.4940   38.7380  123.1340 C   0  0  0  0  0  0  0  0  0  0  0  0
   18.0010   39.4520  125.4940 C   0  0  0  0  0  0  0  0  0  0  0  0
   13.0050   37.3350  126.3130 C   0  0  0  0  0  0  0  0  0  0  0  0
   12.8760   36.0760  125.4490 C   0  0  0  0  0  0  0  0  0  0  0  0
   13.7120   36.9930  127.6330 C   0  0  0  0  0  0  0  0  0  0  0  0
   18.8770   33.7390  125.9740 C   0  0  0  0  0  0  0  0  0  0  0  0
   18.7180   32.9960  127.1380 C   0  0  0  0  0  0  0  0  0  0  0  0
   19.2830   32.8780  124.9770 O   0  0  0  0  0  0  0  0  0  0  0  0
   19.0190   31.6370  126.8480 C   0  0  0  0  0  0  0  0  0  0  0  0
   19.3710   31.6390  125.5130 C   0  0  0  0  0  0  0  0  0  0  0  0
   18.9910   30.4550  127.7750 C   0  0  0  0  0  0  0  0  0  0  0  0
   17.8600   29.4720  127.4480 C   0  0  0  0  0  0  0  0  0  0  0  0
   18.8750   30.9050  129.2340 C   0  0  0  0  0  0  0  0  0  0  0  0
   20.2160   29.7080  127.6660 O   0  0  0  0  0  0  0  0  0  0  0  0
   20.3360   29.5430  126.7140 H   0  0  0  0  0  0  0  0  0  0  0  0
  1 22  1  0  0  0  0
  1  4  1  0  0  0  0
  1  3  2  0  0  0  0
  2  1  2  0  0  0  0
  5  6  1  0  0  0  0
  5  4  1  0  0  0  0
  6  8  1  0  0  0  0
  7  5  2  0  0  0  0
  9 13  1  0  0  0  0
  9  6  1  0  0  0  0
 10  9  2  0  0  0  0
 11 12  2  0  0  0  0
 11 10  1  0  0  0  0
 12 14  1  0  0  0  0
 13 19  1  0  0  0  0
 14 13  2  0  0  0  0
 15 12  1  0  0  0  0
 16 10  1  0  0  0  0
 16 18  1  0  0  0  0
 17 16  1  0  0  0  0
 19 21  1  0  0  0  0
 20 19  1  0  0  0  0
 22 23  2  0  0  0  0
 24 26  1  0  0  0  0
 24 22  1  0  0  0  0
 25 23  1  0  0  0  0
 25 27  1  0  0  0  0
 26 25  2  0  0  0  0
 27 29  1  0  0  0  0
 28 27  1  0  0  0  0
 30 27  1  0  0  0  0
 31 30  1  0  0  0  0
M  END
>  <minimizedAffinity>
-8.9921751

>  <CNNscore>
0.140197009

>  <CNNaffinity>
5.55947733

$$$$

 OpenBabel08262610243D

 31 32  0  0  0  0  0  0  0  0999 V2000
   12.4670   40.7730  123.1730 S   0  0  0  0  0  0  0  0  0  0  0  0
   13.5660   41.6630  122.8050 O   0  0  0  0  0  0  0  0  0  0  0  0
   11.7570   40.1830  122.0380 O   0  0  0  0  0  0  0  0  0  0  0  0
   12.6850   39.7900  124.3930 N   0  0  0  0  0  0  0  0  0  0  0  0
   13.4480   38.7160  124.2290 C   0  0  0  0  0  0  0  0  0  0  0  0
   14.3210   38.6170  125.3010 N   0  0  0  0  0  0  0  0  0  0  0  0
   13.4160   37.8830  123.3280 O   0  0  0  0  0  0  0  0  0  0  0  0
   13.9600   39.1300  126.0890 H   0  0  0  0  0  0  0  0  0  0  0  0
   15.2060   37.5390  125.5250 C   0  0  0  0  0  0  0  0  0  0  0  0
   14.8060   36.4080  126.2880 C   0  0  0  0  0  0  0  0  0  0  0  0
   15.7490   35.3870  126.5220 C   0  0  0  0  0  0  0  0  0  0  0  0
   17.0290   35.4620  125.9920 C   0  0  0  0  0  0  0  0  0  0  0  0
   16.4980   37.5860  124.9250 C   0  0  0  0  0  0  0  0  0  0  0  0
   17.4000   36.5400  125.1970 C   0  0  0  0  0  0  0  0  0  0  0  0
   18.1570   34.1950  126.2950 Cl  0  0  0  0  0  0  0  0  0  0  0  0
   13.3720   36.1900  126.7730 C   0  0  0  0  0  0  0  0  0  0  0  0
   12.3960   35.9390  125.6180 C   0  0  0  0  0  0  0  0  0  0  0  0
   12.8960   37.3770  127.6230 C   0  0  0  0  0  0  0  0  0  0  0  0
   16.9640   38.7820  124.0920 C   0  0  0  0  0  0  0  0  0  0  0  0
   16.5250   38.6160  122.6340 C   0  0  0  0  0  0  0  0  0  0  0  0
   16.5110   40.1510  124.6210 C   0  0  0  0  0  0  0  0  0  0  0  0
   11.2070   41.9510  123.7670 C   0  0  0  0  0  0  0  0  0  0  0  0
    9.8260   41.8230  123.8490 C   0  0  0  0  0  0  0  0  0  0  0  0
   11.5420   43.2050  124.2290 O   0  0  0  0  0  0  0  0  0  0  0  0
    9.2950   43.0260  124.3920 C   0  0  0  0  0  0  0  0  0  0  0  0
   10.3980   43.8320  124.5870 C   0  0  0  0  0  0  0  0  0  0  0  0
    7.8600   43.3700  124.6740 C   0  0  0  0  0  0  0  0  0  0  0  0
    6.8910   42.2550  124.2630 C   0  0  0  0  0  0  0  0  0  0  0  0
    7.4630   44.6770  123.9820 C   0  0  0  0  0  0  0  0  0  0  0  0
    7.6650   43.5720  126.0850 O   0  0  0  0  0  0  0  0  0  0  0  0
    8.0410   42.7830  126.5160 H   0  0  0  0  0  0  0  0  0  0  0  0
  1 22  1  0  0  0  0
  1  4  1  0  0  0  0
  2  1  2  0  0  0  0
  3  1  2  0  0  0  0
  5  4  1  0  0  0  0
  5  6  1  0  0  0  0
  6  9  1  0  0  0  0
  6  8  1  0  0  0  0
  7  5  2  0  0  0  0
  9 10  1  0  0  0  0
 10 11  2  0  0  0  0
 10 16  1  0  0  0  0
 12 15  1  0  0  0  0
 12 11  1  0  0  0  0
 13 14  1  0  0  0  0
 13  9  2  0  0  0  0
 14 12  2  0  0  0  0
 16 18  1  0  0  0  0
 17 16  1  0  0  0  0
 19 21  1  0  0  0  0
 19 13  1  0  0  0  0
 20 19  1  0  0  0  0
 22 23  2  0  0  0  0
 22 24  1  0  0  0  0
 23 25  1  0  0  0  0
 24 26  1  0  0  0  0
 25 26  2  0  0  0  0
 25 27  1  0  0  0  0
 27 30  1  0  0  0  0
 28 27  1  0  0  0  0
 29 27  1  0  0  0  0
 30 31  1  0  0  0  0
M  END
>  <minimizedAffinity>
-8.65416718

>  <CNNscore>
0.13788043

>  <CNNaffinity>
3.87569976

$$$$
