HDHFSJKBCCIERR-UHFFFAOYSA-N
     RDKit          3D

 23 25  0  0  0  0  0  0  0  0999 V2000
  -12.0350   11.4310   19.8540 C   0  0  0  0  0  0  0  0  0  0  0  0
  -12.7980   12.7110   19.7780 C   0  0  0  0  0  0  0  0  0  0  0  0
  -14.1720   12.6990   19.6710 C   0  0  0  0  0  0  0  0  0  0  0  0
  -14.9390   13.8020   19.6090 N   0  0  0  0  0  0  0  0  0  0  0  0
  -14.3100   14.9800   19.6590 C   0  0  0  0  0  0  0  0  0  0  0  0
  -15.0200   16.1470   19.6090 N   0  0  0  0  0  0  0  0  0  0  0  0
  -15.9210   16.5630   20.6620 C   0  0  0  0  0  0  0  0  0  0  0  0
  -15.1610   17.4450   21.6560 C   0  0  0  0  0  0  0  0  0  0  0  0
  -16.1210   18.0030   22.6960 C   0  0  0  0  0  0  0  0  0  0  0  0
  -17.1780   18.7270   22.0670 O   0  0  0  0  0  0  0  0  0  0  0  0
  -17.9600   17.9020   21.2040 C   0  0  0  0  0  0  0  0  0  0  0  0
  -17.1070   17.3350   20.0800 C   0  0  0  0  0  0  0  0  0  0  0  0
  -12.9850   15.1090   19.7480 N   0  0  0  0  0  0  0  0  0  0  0  0
  -12.2430   13.9780   19.7930 C   0  0  0  0  0  0  0  0  0  0  0  0
  -10.8100   14.2190   19.8610 C   0  0  0  0  0  0  0  0  0  0  0  0
   -9.6990   13.4060   19.5510 C   0  0  0  0  0  0  0  0  0  0  0  0
   -8.5310   14.0290   19.7440 N   0  0  0  0  0  0  0  0  0  0  0  0
   -8.8970   15.2580   20.1490 N   0  0  0  0  0  0  0  0  0  0  0  0
   -7.8780   16.2510   20.4270 C   0  0  0  0  0  0  0  0  0  0  0  0
   -6.6710   16.0810   19.5170 C   0  0  0  0  0  0  0  0  0  0  0  0
   -6.3710   17.3450   18.8390 C   0  0  0  0  0  0  0  0  0  0  0  0
   -6.1540   18.3510   18.3050 N   0  0  0  0  0  0  0  0  0  0  0  0
  -10.2460   15.4250   20.2310 C   0  0  0  0  0  0  0  0  0  0  0  0
  1  2  1  0
  2  3  2  0
  3  4  1  0
  4  5  2  0
  5  6  1  0
  6  7  1  0
  7  8  1  0
  8  9  1  0
  9 10  1  0
 10 11  1  0
 11 12  1  0
  5 13  1  0
 13 14  2  0
 14 15  1  0
 15 16  1  0
 16 17  2  0
 17 18  1  0
 18 19  1  0
 19 20  1  0
 20 21  1  0
 21 22  3  0
 18 23  1  0
 14  2  1  0
 23 15  2  0
 12  7  1  0
M  END
$$$$
