RAOSMRQNSKDBMX-UHFFFAOYSA-N
     RDKit          3D

 41 43  0  0  0  0  0  0  0  0999 V2000
   11.6240  -21.9780   26.8590 C   0  0  0  0  0  0  0  0  0  0  0  0
   11.3130  -23.2060   26.1830 N   0  0  0  0  0  0  0  0  0  0  0  0
   10.7140  -23.2590   24.9500 C   0  0  0  0  0  0  0  0  0  0  0  0
   10.3760  -22.3030   24.2720 O   0  0  0  0  0  0  0  0  0  0  0  0
   10.5000  -24.6990   24.4680 C   0  0  0  0  0  0  0  0  0  0  0  0
   11.5430  -25.4890   24.4580 N   0  0  0  0  0  0  0  0  0  0  0  0
    9.1470  -25.1530   24.0610 C   0  0  0  0  0  0  0  0  0  0  0  0
    8.5250  -26.1860   24.7900 C   0  0  0  0  0  0  0  0  0  0  0  0
    9.1050  -26.7830   25.9080 N   0  0  0  0  0  0  0  0  0  0  0  0
    7.3250  -26.7000   24.3030 C   0  0  0  0  0  0  0  0  0  0  0  0
    6.7680  -26.1670   23.1460 C   0  0  0  0  0  0  0  0  0  0  0  0
    5.4880  -26.6550   22.5980 C   0  0  0  0  0  0  0  0  0  0  0  0
    5.1380  -28.0050   22.8100 C   0  0  0  0  0  0  0  0  0  0  0  0
    3.9460  -28.5190   22.3190 C   0  0  0  0  0  0  0  0  0  0  0  0
    3.6360  -29.8060   22.5330 F   0  0  0  0  0  0  0  0  0  0  0  0
    3.0700  -27.7140   21.6080 C   0  0  0  0  0  0  0  0  0  0  0  0
    1.8970  -28.2070   21.1170 O   0  0  0  0  0  0  0  0  0  0  0  0
    3.3790  -26.3810   21.3810 C   0  0  0  0  0  0  0  0  0  0  0  0
    4.5830  -25.8310   21.8730 C   0  0  0  0  0  0  0  0  0  0  0  0
    4.8590  -24.3680   21.5670 C   0  0  0  0  0  0  0  0  0  0  0  0
    4.7550  -24.0120   20.0940 C   0  0  0  0  0  0  0  0  0  0  0  0
    5.7710  -23.2130   19.6990 F   0  0  0  0  0  0  0  0  0  0  0  0
    4.8110  -25.1330   19.3340 F   0  0  0  0  0  0  0  0  0  0  0  0
    3.5980  -23.3870   19.7880 F   0  0  0  0  0  0  0  0  0  0  0  0
    7.3560  -25.1620   22.4620 N   0  0  0  0  0  0  0  0  0  0  0  0
    8.5200  -24.6410   22.9140 C   0  0  0  0  0  0  0  0  0  0  0  0
    9.0950  -23.6320   22.1600 N   0  0  0  0  0  0  0  0  0  0  0  0
    8.3030  -22.9370   21.1640 C   0  0  0  0  0  0  0  0  0  0  0  0
    8.8050  -21.5210   21.0140 C   0  0  0  0  0  0  0  0  0  0  0  0
   10.1890  -21.2750   20.9880 C   0  0  0  0  0  0  0  0  0  0  0  0
   10.6930  -19.9720   20.8780 C   0  0  0  0  0  0  0  0  0  0  0  0
   12.1740  -19.7320   20.8260 C   0  0  0  0  0  0  0  0  0  0  0  0
    9.7990  -18.9030   20.7670 C   0  0  0  0  0  0  0  0  0  0  0  0
    8.4230  -19.1310   20.7780 C   0  0  0  0  0  0  0  0  0  0  0  0
    7.9240  -20.4330   20.8960 C   0  0  0  0  0  0  0  0  0  0  0  0
    6.5030  -20.6660   20.8420 N   0  0  0  0  0  0  0  0  0  0  0  0
    5.8300  -20.1320   19.6390 C   0  0  0  0  0  0  0  0  0  0  0  0
    5.6860  -20.4820   22.3220 S   0  0  0  0  0  0  0  0  0  0  0  0
    3.9920  -20.4820   21.7790 C   0  0  0  0  0  0  0  0  0  0  0  0
    5.9970  -19.1720   22.8570 O   0  0  0  0  0  0  0  0  0  0  0  0
    5.8680  -21.6800   23.1160 O   0  0  0  0  0  0  0  0  0  0  0  0
  1  2  1  0
  2  3  1  0
  3  4  2  0
  3  5  1  0
  5  6  2  0
  5  7  1  0
  7  8  2  0
  8  9  1  0
  8 10  1  0
 10 11  2  0
 11 12  1  0
 12 13  2  0
 13 14  1  0
 14 15  1  0
 14 16  2  0
 16 17  1  0
 16 18  1  0
 18 19  2  0
 19 20  1  0
 20 21  1  0
 21 22  1  0
 21 23  1  0
 21 24  1  0
 11 25  1  0
 25 26  2  0
 26 27  1  0
 27 28  1  0
 28 29  1  0
 29 30  2  0
 30 31  1  0
 31 32  1  0
 31 33  2  0
 33 34  1  0
 34 35  2  0
 35 36  1  0
 36 37  1  0
 36 38  1  0
 38 39  1  0
 38 40  2  0
 38 41  2  0
 26  7  1  0
 35 29  1  0
 19 12  1  0
M  END
$$$$
