SJCQYTOHJMCKJL-UHFFFAOYSA-N
     RDKit          3D

 36 40  0  0  0  0  0  0  0  0999 V2000
    7.7320   -0.7970   30.2560 O   0  0  0  0  0  0  0  0  0  0  0  0
    8.0160    0.0250   31.1240 C   0  0  0  0  0  0  0  0  0  0  0  0
    7.1010    0.5080   32.0230 N   0  0  0  0  0  0  0  0  0  0  0  0
    5.7300    0.0360   32.0830 C   0  0  0  0  0  0  0  0  0  0  0  0
    4.8630    0.9590   32.9580 C   0  0  0  0  0  0  0  0  0  0  0  0
    5.4200    2.3200   33.0750 N   0  0  0  0  0  0  0  0  0  0  0  0
    5.1740    2.8890   34.4040 C   0  0  0  0  0  0  0  0  0  0  0  0
    5.5000    4.3590   34.2020 C   0  0  0  0  0  0  0  0  0  0  0  0
    5.1820    4.6340   32.7370 C   0  0  0  0  0  0  0  0  0  0  0  0
    4.8140    3.2780   32.1450 C   0  0  0  0  0  0  0  0  0  0  0  0
    9.3600    0.5410   31.2690 C   0  0  0  0  0  0  0  0  0  0  0  0
   10.2560    0.5470   32.3210 C   0  0  0  0  0  0  0  0  0  0  0  0
   11.4470    1.2030   31.8920 C   0  0  0  0  0  0  0  0  0  0  0  0
   12.6590    1.4980   32.5170 C   0  0  0  0  0  0  0  0  0  0  0  0
   13.6040    2.1470   31.8180 N   0  0  0  0  0  0  0  0  0  0  0  0
   13.3880    2.5190   30.4960 N   0  0  0  0  0  0  0  0  0  0  0  0
   12.2390    2.2680   29.8190 C   0  0  0  0  0  0  0  0  0  0  0  0
   12.0350    2.6390   28.4810 N   0  0  0  0  0  0  0  0  0  0  0  0
   12.9310    2.8660   27.4220 C   0  0  0  0  0  0  0  0  0  0  0  0
   13.9510    1.9840   27.0540 C   0  0  0  0  0  0  0  0  0  0  0  0
   14.8130    2.2600   25.9820 C   0  0  0  0  0  0  0  0  0  0  0  0
   14.6710    3.4320   25.2390 C   0  0  0  0  0  0  0  0  0  0  0  0
   15.4630    3.7860   24.1810 O   0  0  0  0  0  0  0  0  0  0  0  0
   16.5630    2.9330   23.8610 C   0  0  0  0  0  0  0  0  0  0  0  0
   17.7410    3.7830   23.4490 C   0  0  0  0  0  0  0  0  0  0  0  0
   18.1970    4.8250   24.2770 C   0  0  0  0  0  0  0  0  0  0  0  0
   19.2690    5.6320   23.8870 C   0  0  0  0  0  0  0  0  0  0  0  0
   19.8930    5.4100   22.6610 C   0  0  0  0  0  0  0  0  0  0  0  0
   19.4400    4.3850   21.8370 C   0  0  0  0  0  0  0  0  0  0  0  0
   20.0400    4.1740   20.6560 F   0  0  0  0  0  0  0  0  0  0  0  0
   18.3730    3.5750   22.2150 C   0  0  0  0  0  0  0  0  0  0  0  0
   13.6570    4.3270   25.6010 C   0  0  0  0  0  0  0  0  0  0  0  0
   13.4120    5.8100   24.7380 Cl  0  0  0  0  0  0  0  0  0  0  0  0
   12.8020    4.0460   26.6740 C   0  0  0  0  0  0  0  0  0  0  0  0
   11.2590    1.5910   30.5650 C   0  0  0  0  0  0  0  0  0  0  0  0
    9.9900    1.1780   30.2220 N   0  0  0  0  0  0  0  0  0  0  0  0
  1  2  2  0
  2  3  1  0
  3  4  1  0
  4  5  1  0
  5  6  1  0
  6  7  1  0
  7  8  1  0
  8  9  1  0
  9 10  1  0
  2 11  1  0
 11 12  2  0
 12 13  1  0
 13 14  2  0
 14 15  1  0
 15 16  2  0
 16 17  1  0
 17 18  1  0
 18 19  1  0
 19 20  2  0
 20 21  1  0
 21 22  2  0
 22 23  1  0
 23 24  1  0
 24 25  1  0
 25 26  2  0
 26 27  1  0
 27 28  2  0
 28 29  1  0
 29 30  1  0
 29 31  2  0
 22 32  1  0
 32 33  1  0
 32 34  2  0
 17 35  2  0
 35 36  1  0
 10  6  1  0
 36 11  1  0
 35 13  1  0
 34 19  1  0
 31 25  1  0
M  END
$$$$
