AMKFBXVTNZFKFF-UHFFFAOYSA-N
     RDKit          3D

 42 46  0  0  0  0  0  0  0  0999 V2000
   14.4540   28.8330    5.8430 O   0  0  0  0  0  0  0  0  0  0  0  0
   15.1340   28.8310    6.8660 C   0  0  0  0  0  0  0  0  0  0  0  0
   16.5960   28.4350    6.9310 C   0  0  0  0  0  0  0  0  0  0  0  0
   17.5490   29.5550    6.5160 C   0  0  0  0  0  0  0  0  0  0  0  0
   17.4910   30.7530    7.4710 C   0  0  0  0  0  0  0  0  0  0  0  0
   16.9600   32.0310    6.8130 C   0  0  0  0  0  0  0  0  0  0  0  0
   16.2080   32.9450    7.7860 C   0  0  0  0  0  0  0  0  0  0  0  0
   17.1240   33.5840    8.8310 C   0  0  0  0  0  0  0  0  0  0  0  0
   16.6840   33.3770   10.1930 N   0  0  0  0  0  0  0  0  0  0  0  0
   16.7260   34.2620   11.2310 C   0  0  0  0  0  0  0  0  0  0  0  0
   16.1860   33.5600   12.2850 C   0  0  0  0  0  0  0  0  0  0  0  0
   15.9970   34.0200   13.6490 C   0  0  0  0  0  0  0  0  0  0  0  0
   14.8150   33.7970   14.3550 C   0  0  0  0  0  0  0  0  0  0  0  0
   14.6760   34.2660   15.6660 C   0  0  0  0  0  0  0  0  0  0  0  0
   15.6870   34.9670   16.3110 C   0  0  0  0  0  0  0  0  0  0  0  0
   15.4730   35.3750   17.5630 N   0  0  0  0  0  0  0  0  0  0  0  0
   16.4720   36.0370   18.1540 C   0  0  0  0  0  0  0  0  0  0  0  0
   17.6510   36.3380   17.6060 N   0  0  0  0  0  0  0  0  0  0  0  0
   17.8560   35.9390   16.3370 C   0  0  0  0  0  0  0  0  0  0  0  0
   19.0860   36.2500   15.7140 N   0  0  0  0  0  0  0  0  0  0  0  0
   20.2570   35.4860   15.5570 C   0  0  0  0  0  0  0  0  0  0  0  0
   20.9320   35.5280   14.3280 C   0  0  0  0  0  0  0  0  0  0  0  0
   22.0930   34.7740   14.1020 C   0  0  0  0  0  0  0  0  0  0  0  0
   22.6040   33.9490   15.1040 C   0  0  0  0  0  0  0  0  0  0  0  0
   23.7290   33.1780   14.9810 O   0  0  0  0  0  0  0  0  0  0  0  0
   24.9330   33.8150   14.5650 C   0  0  0  0  0  0  0  0  0  0  0  0
   25.5110   33.0150   13.4240 C   0  0  0  0  0  0  0  0  0  0  0  0
   24.7740   31.9680   12.8470 C   0  0  0  0  0  0  0  0  0  0  0  0
   25.2980   31.2310   11.7810 C   0  0  0  0  0  0  0  0  0  0  0  0
   26.5590   31.5390   11.2770 C   0  0  0  0  0  0  0  0  0  0  0  0
   27.2830   32.5850   11.8370 C   0  0  0  0  0  0  0  0  0  0  0  0
   28.4930   32.8860   11.3480 F   0  0  0  0  0  0  0  0  0  0  0  0
   26.7720   33.3260   12.8980 C   0  0  0  0  0  0  0  0  0  0  0  0
   21.9220   33.8860   16.3270 C   0  0  0  0  0  0  0  0  0  0  0  0
   22.4830   32.8730   17.6160 Cl  0  0  0  0  0  0  0  0  0  0  0  0
   20.7620   34.6400   16.5460 C   0  0  0  0  0  0  0  0  0  0  0  0
   16.8810   35.2120   15.6200 C   0  0  0  0  0  0  0  0  0  0  0  0
   17.0250   34.7220   14.2930 C   0  0  0  0  0  0  0  0  0  0  0  0
   15.8370   32.3050   11.8520 N   0  0  0  0  0  0  0  0  0  0  0  0
   16.1440   32.2050   10.5660 N   0  0  0  0  0  0  0  0  0  0  0  0
   14.6180   29.2110    8.0780 N   0  0  0  0  0  0  0  0  0  0  0  0
   13.2620   29.6020    8.0950 O   0  0  0  0  0  0  0  0  0  0  0  0
  1  2  2  0
  2  3  1  0
  3  4  1  0
  4  5  1  0
  5  6  1  0
  6  7  1  0
  7  8  1  0
  8  9  1  0
  9 10  1  0
 10 11  2  0
 11 12  1  0
 12 13  2  0
 13 14  1  0
 14 15  2  0
 15 16  1  0
 16 17  2  0
 17 18  1  0
 18 19  2  0
 19 20  1  0
 20 21  1  0
 21 22  2  0
 22 23  1  0
 23 24  2  0
 24 25  1  0
 25 26  1  0
 26 27  1  0
 27 28  2  0
 28 29  1  0
 29 30  2  0
 30 31  1  0
 31 32  1  0
 31 33  2  0
 24 34  1  0
 34 35  1  0
 34 36  2  0
 19 37  1  0
 37 38  2  0
 11 39  1  0
 39 40  2  0
  2 41  1  0
 41 42  1  0
 40  9  1  0
 38 12  1  0
 37 15  1  0
 36 21  1  0
 33 27  1  0
M  END
$$$$
