VVORMAVELBPTAS-UHFFFAOYSA-N
     RDKit          3D

 25 28  0  0  0  0  0  0  0  0999 V2000
   11.5510    5.5190   25.3080 C   0  0  0  0  0  0  0  0  0  0  0  0
   12.8290    6.2990   25.4220 C   0  0  0  0  0  0  0  0  0  0  0  0
   12.7420    7.6830   25.6590 C   0  0  0  0  0  0  0  0  0  0  0  0
   13.8880    8.4640   25.7780 C   0  0  0  0  0  0  0  0  0  0  0  0
   15.1360    7.8680   25.6650 C   0  0  0  0  0  0  0  0  0  0  0  0
   15.2330    6.4910   25.4420 C   0  0  0  0  0  0  0  0  0  0  0  0
   14.0940    5.6750   25.3310 C   0  0  0  0  0  0  0  0  0  0  0  0
   14.2000    4.2910   25.0890 N   0  0  0  0  0  0  0  0  0  0  0  0
   15.3490    3.5320   24.9990 C   0  0  0  0  0  0  0  0  0  0  0  0
   16.2130    3.7080   24.0400 N   0  0  0  0  0  0  0  0  0  0  0  0
   17.3190    2.9080   23.9500 C   0  0  0  0  0  0  0  0  0  0  0  0
   17.6430    1.9350   24.7410 N   0  0  0  0  0  0  0  0  0  0  0  0
   16.7700    1.7490   25.7390 N   0  0  0  0  0  0  0  0  0  0  0  0
   16.8890    0.8040   26.7190 C   0  0  0  0  0  0  0  0  0  0  0  0
   15.8310    0.9510   27.5830 C   0  0  0  0  0  0  0  0  0  0  0  0
   15.0220    2.0290   27.1030 C   0  0  0  0  0  0  0  0  0  0  0  0
   13.7840    2.5290   27.7830 C   0  0  0  0  0  0  0  0  0  0  0  0
   13.4790    1.7610   29.0150 N   0  0  0  0  0  0  0  0  0  0  0  0
   12.0480    1.3770   28.9670 C   0  0  0  0  0  0  0  0  0  0  0  0
   11.5810    0.6400   30.2240 C   0  0  0  0  0  0  0  0  0  0  0  0
   11.8700    1.4620   31.4770 C   0  0  0  0  0  0  0  0  0  0  0  0
   11.4900    0.7100   32.6740 N   0  0  0  0  0  0  0  0  0  0  0  0
   13.3460    1.8450   31.5080 C   0  0  0  0  0  0  0  0  0  0  0  0
   13.7370    2.5770   30.2220 C   0  0  0  0  0  0  0  0  0  0  0  0
   15.6390    2.4850   25.9440 C   0  0  0  0  0  0  0  0  0  0  0  0
  1  2  1  0
  2  3  2  0
  3  4  1  0
  4  5  2  0
  5  6  1  0
  6  7  2  0
  7  8  1  0
  8  9  1  0
  9 10  2  0
 10 11  1  0
 11 12  2  0
 12 13  1  0
 13 14  1  0
 14 15  2  0
 15 16  1  0
 16 17  1  0
 17 18  1  0
 18 19  1  0
 19 20  1  0
 20 21  1  0
 21 22  1  0
 21 23  1  0
 23 24  1  0
 16 25  2  0
  7  2  1  0
 25  9  1  0
 25 13  1  0
 24 18  1  0
M  END
$$$$
