OHNNFCNGTAKEOI-ZSOGYDGISA-N
     RDKit          3D

 31 35  0  0  0  0  0  0  0  0999 V2000
   -4.9900   31.6270  -29.8860 C   0  0  0  0  0  0  0  0  0  0  0  0
   -4.8280   30.2440  -30.3810 C   0  0  0  0  0  0  0  0  0  0  0  0
   -3.8920   29.2700  -30.1090 C   0  0  0  0  0  0  0  0  0  0  0  0
   -4.2540   28.1570  -30.8990 C   0  0  0  0  0  0  0  0  0  0  0  0
   -3.6610   26.9520  -30.9450 N   0  0  0  0  0  0  0  0  0  0  0  0
   -3.8180   25.7250  -30.3040 C   0  0  0  0  0  0  0  0  0  0  0  0
   -3.5950   25.7800  -28.9720 N   0  0  0  0  0  0  0  0  0  0  0  0
   -3.7110   24.6650  -28.2220 C   0  0  0  0  0  0  0  0  0  0  0  0
   -3.4610   24.7730  -26.8580 N   0  0  0  0  0  0  0  0  0  0  0  0
   -2.1580   25.2210  -26.3730 C   0  0  2  0  0  0  0  0  0  0  0  0
   -1.0630   24.3350  -27.0020 C   0  0  0  0  0  0  0  0  0  0  0  0
    0.2870   24.4820  -26.2810 C   0  0  1  0  0  0  0  0  0  0  0  0
    0.7480   25.9390  -26.1710 C   0  0  0  0  0  0  0  0  0  0  0  0
    0.0980   26.4650  -24.8880 C   0  0  0  0  0  0  0  0  0  0  0  0
   -0.6630   25.2670  -24.3060 C   0  0  1  0  0  0  0  0  0  0  0  0
   -2.1060   25.1840  -24.8320 C   0  0  0  0  0  0  0  0  0  0  0  0
    0.0370   24.0770  -24.8680 N   0  0  0  0  0  0  0  0  0  0  0  0
    1.3640   23.4480  -24.0190 S   0  0  0  0  0  0  0  0  0  0  0  0
    0.7880   21.8110  -23.6220 C   0  0  0  0  0  0  0  0  0  0  0  0
    2.4570   23.3110  -24.9580 O   0  0  0  0  0  0  0  0  0  0  0  0
    1.5210   24.1960  -22.7910 O   0  0  0  0  0  0  0  0  0  0  0  0
   -4.0290   23.4140  -28.7950 C   0  0  0  0  0  0  0  0  0  0  0  0
   -4.1030   22.2000  -28.0750 C   0  0  0  0  0  0  0  0  0  0  0  0
   -4.4430   21.0140  -28.7140 C   0  0  0  0  0  0  0  0  0  0  0  0
   -4.7010   21.0690  -30.0650 C   0  0  0  0  0  0  0  0  0  0  0  0
   -4.6320   22.2030  -30.7910 N   0  0  0  0  0  0  0  0  0  0  0  0
   -4.2900   23.3610  -30.1750 C   0  0  0  0  0  0  0  0  0  0  0  0
   -4.1910   24.5330  -30.9120 C   0  0  0  0  0  0  0  0  0  0  0  0
   -4.5170   24.4960  -32.2150 F   0  0  0  0  0  0  0  0  0  0  0  0
   -5.3790   28.4040  -31.5780 N   0  0  0  0  0  0  0  0  0  0  0  0
   -5.6810   29.6750  -31.2800 N   0  0  0  0  0  0  0  0  0  0  0  0
  1  2  1  0
  2  3  2  0
  3  4  1  0
  4  5  1  0
  5  6  1  0
  6  7  2  0
  7  8  1  0
  8  9  1  0
 10  9  1  1
 10 11  1  0
 12 11  1  6
 12 13  1  0
 13 14  1  0
 15 14  1  6
 15 16  1  0
 15 17  1  0
 17 18  1  0
 18 19  1  0
 18 20  2  0
 18 21  2  0
  8 22  2  0
 22 23  1  0
 23 24  2  0
 24 25  1  0
 25 26  2  0
 26 27  1  0
 27 28  2  0
 28 29  1  0
  4 30  2  0
 30 31  1  0
 31  2  1  0
 28  6  1  0
 16 10  1  0
 27 22  1  0
 17 12  1  0
M  END
$$$$
