UOKLODYFAVGQRH-UHFFFAOYSA-N
     RDKit          3D

 34 36  0  0  0  0  0  0  0  0999 V2000
   38.9240  -38.2010  111.1480 C   0  0  0  0  0  0  0  0  0  0  0  0
   39.7450  -38.4220  109.9300 C   0  0  0  0  0  0  0  0  0  0  0  0
   41.0390  -38.8970  110.0940 N   0  0  0  0  0  0  0  0  0  0  0  0
   41.6370  -39.0260  108.9270 C   0  0  0  0  0  0  0  0  0  0  0  0
   43.0080  -39.5360  108.7540 C   0  0  0  0  0  0  0  0  0  0  0  0
   43.9500  -39.5530  109.7920 C   0  0  0  0  0  0  0  0  0  0  0  0
   45.2420  -40.0440  109.5750 C   0  0  0  0  0  0  0  0  0  0  0  0
   45.6250  -40.5240  108.3220 C   0  0  0  0  0  0  0  0  0  0  0  0
   46.9150  -40.9590  108.2530 O   0  0  0  0  0  0  0  0  0  0  0  0
   47.9330  -39.9830  108.1040 C   0  0  0  0  0  0  0  0  0  0  0  0
   49.0280  -40.5000  107.5100 F   0  0  0  0  0  0  0  0  0  0  0  0
   47.4620  -38.9870  107.3210 F   0  0  0  0  0  0  0  0  0  0  0  0
   48.2720  -39.4540  109.2980 F   0  0  0  0  0  0  0  0  0  0  0  0
   44.6910  -40.5310  107.2870 C   0  0  0  0  0  0  0  0  0  0  0  0
   43.3950  -40.0450  107.5060 C   0  0  0  0  0  0  0  0  0  0  0  0
   40.6590  -38.6170  107.5730 S   0  0  0  0  0  0  0  0  0  0  0  0
   39.3560  -38.2200  108.6150 C   0  0  0  0  0  0  0  0  0  0  0  0
   38.0710  -37.7580  108.1180 C   0  0  0  0  0  0  0  0  0  0  0  0
   37.6690  -36.6060  108.2690 O   0  0  0  0  0  0  0  0  0  0  0  0
   37.3070  -38.7050  107.4710 N   0  0  0  0  0  0  0  0  0  0  0  0
   35.9590  -38.4510  107.0230 C   0  0  0  0  0  0  0  0  0  0  0  0
   35.9700  -37.9390  105.6060 C   0  0  0  0  0  0  0  0  0  0  0  0
   36.1120  -38.8270  104.5350 C   0  0  0  0  0  0  0  0  0  0  0  0
   36.1650  -38.3490  103.2230 C   0  0  0  0  0  0  0  0  0  0  0  0
   36.0890  -36.9800  102.9510 C   0  0  0  0  0  0  0  0  0  0  0  0
   36.1640  -36.6770  101.6240 O   0  0  0  0  0  0  0  0  0  0  0  0
   37.3010  -36.0380  101.0420 C   0  0  0  0  0  0  0  0  0  0  0  0
   36.8790  -35.7390   99.5890 C   0  0  0  0  0  0  0  0  0  0  0  0
   37.5580  -34.6830  101.7220 C   0  0  0  0  0  0  0  0  0  0  0  0
   38.5940  -36.8760  100.9510 C   0  0  0  0  0  0  0  0  0  0  0  0
   38.7000  -38.0740  101.1660 O   0  0  0  0  0  0  0  0  0  0  0  0
   39.6790  -36.1620  100.5770 O   0  0  0  0  0  0  0  0  0  0  0  0
   35.9430  -36.0930  104.0160 C   0  0  0  0  0  0  0  0  0  0  0  0
   35.8890  -36.5680  105.3340 C   0  0  0  0  0  0  0  0  0  0  0  0
  1  2  1  0
  2  3  1  0
  3  4  2  0
  4  5  1  0
  5  6  2  0
  6  7  1  0
  7  8  2  0
  8  9  1  0
  9 10  1  0
 10 11  1  0
 10 12  1  0
 10 13  1  0
  8 14  1  0
 14 15  2  0
  4 16  1  0
 16 17  1  0
 17 18  1  0
 18 19  2  0
 18 20  1  0
 20 21  1  0
 21 22  1  0
 22 23  2  0
 23 24  1  0
 24 25  2  0
 25 26  1  0
 26 27  1  0
 27 28  1  0
 27 29  1  0
 27 30  1  0
 30 31  2  0
 30 32  1  0
 25 33  1  0
 33 34  2  0
 17  2  2  0
 34 22  1  0
 15  5  1  0
M  END
$$$$
