PVTZPAMEGKOLDH-UHFFFAOYSA-N
     RDKit          3D

 31 34  0  0  0  0  0  0  0  0999 V2000
   -3.2110   -7.1940  -19.4140 C   0  0  0  0  0  0  0  0  0  0  0  0
   -3.3100   -5.8140  -20.0530 C   0  0  0  0  0  0  0  0  0  0  0  0
   -4.7270   -5.3910  -20.4840 C   0  0  2  0  0  0  0  0  0  0  0  0
   -4.9090   -3.9220  -20.1580 C   0  0  0  0  0  0  0  0  0  0  0  0
   -4.7410   -3.3830  -19.0770 O   0  0  0  0  0  0  0  0  0  0  0  0
   -5.2880   -3.1980  -21.2300 O   0  0  0  0  0  0  0  0  0  0  0  0
   -5.8840   -6.2180  -19.8760 C   0  0  1  0  0  0  0  0  0  0  0  0
   -7.0890   -5.3290  -19.4540 C   0  0  0  0  0  0  0  0  0  0  0  0
   -7.9950   -5.1920  -20.6850 C   0  0  0  0  0  0  0  0  0  0  0  0
   -7.7640   -6.5150  -21.3440 C   0  0  0  0  0  0  0  0  0  0  0  0
   -8.5590   -7.1310  -22.3010 C   0  0  0  0  0  0  0  0  0  0  0  0
   -8.1730   -8.3830  -22.7810 C   0  0  0  0  0  0  0  0  0  0  0  0
   -8.8450   -9.1240  -23.7160 O   0  0  0  0  0  0  0  0  0  0  0  0
   -9.1670   -8.4770  -24.9520 C   0  0  0  0  0  0  0  0  0  0  0  0
  -10.6860   -8.3590  -25.0610 C   0  0  0  0  0  0  0  0  0  0  0  0
  -11.1080   -7.3880  -26.1060 C   0  0  0  0  0  0  0  0  0  0  0  0
  -11.9440   -6.3390  -25.7940 N   0  0  0  0  0  0  0  0  0  0  0  0
  -12.1040   -5.6970  -26.9370 C   0  0  0  0  0  0  0  0  0  0  0  0
  -12.8870   -4.4950  -27.2180 C   0  0  0  0  0  0  0  0  0  0  0  0
  -12.8910   -3.9590  -28.5130 C   0  0  0  0  0  0  0  0  0  0  0  0
  -13.6340   -2.8120  -28.8140 C   0  0  0  0  0  0  0  0  0  0  0  0
  -14.3960   -2.1840  -27.8260 C   0  0  0  0  0  0  0  0  0  0  0  0
  -15.1690   -0.9360  -28.1390 C   0  0  0  0  0  0  0  0  0  0  0  0
  -14.3840   -2.7040  -26.5270 C   0  0  0  0  0  0  0  0  0  0  0  0
  -13.6410   -3.8500  -26.2270 C   0  0  0  0  0  0  0  0  0  0  0  0
  -11.4260   -6.2560  -27.9880 O   0  0  0  0  0  0  0  0  0  0  0  0
  -10.7890   -7.3370  -27.4470 C   0  0  0  0  0  0  0  0  0  0  0  0
   -9.9740   -8.1600  -28.3560 C   0  0  0  0  0  0  0  0  0  0  0  0
   -7.0050   -8.9900  -22.2900 C   0  0  0  0  0  0  0  0  0  0  0  0
   -6.2040   -8.3560  -21.3360 C   0  0  0  0  0  0  0  0  0  0  0  0
   -6.5840   -7.1060  -20.8790 C   0  0  0  0  0  0  0  0  0  0  0  0
  1  2  1  0
  3  2  1  1
  3  4  1  0
  4  5  2  0
  4  6  1  0
  3  7  1  0
  7  8  1  6
  8  9  1  0
  9 10  1  0
 10 11  2  0
 11 12  1  0
 12 13  1  0
 13 14  1  0
 14 15  1  0
 15 16  1  0
 16 17  1  0
 17 18  2  0
 18 19  1  0
 19 20  2  0
 20 21  1  0
 21 22  2  0
 22 23  1  0
 22 24  1  0
 24 25  2  0
 18 26  1  0
 26 27  1  0
 27 28  1  0
 12 29  2  0
 29 30  1  0
 30 31  2  0
 31  7  1  0
 31 10  1  0
 27 16  2  0
 25 19  1  0
M  END
$$$$
