HYWHYYQDFBRNJV-UHFFFAOYSA-N
     RDKit          3D

 42 46  0  0  0  0  0  0  0  0999 V2000
  -22.8930  -45.2620   27.0930 C   0  0  0  0  0  0  0  0  0  0  0  0
  -21.9950  -44.6410   28.1280 C   0  0  0  0  0  0  0  0  0  0  0  0
  -22.2640  -44.6520   29.3230 O   0  0  0  0  0  0  0  0  0  0  0  0
  -20.8430  -44.1020   27.6070 N   0  0  0  0  0  0  0  0  0  0  0  0
  -19.8180  -43.5120   28.4480 C   0  0  0  0  0  0  0  0  0  0  0  0
  -19.1130  -42.3270   27.7780 C   0  0  0  0  0  0  0  0  0  0  0  0
  -19.9060  -41.7310   26.6530 C   0  0  0  0  0  0  0  0  0  0  0  0
  -21.1710  -41.1830   26.7460 C   0  0  0  0  0  0  0  0  0  0  0  0
  -21.5410  -40.7380   25.5070 N   0  0  0  0  0  0  0  0  0  0  0  0
  -20.5390  -40.9770   24.5960 C   0  0  0  0  0  0  0  0  0  0  0  0
  -20.4810  -40.6880   23.2250 C   0  0  0  0  0  0  0  0  0  0  0  0
  -19.3220  -41.0490   22.5360 C   0  0  0  0  0  0  0  0  0  0  0  0
  -18.2700  -41.6670   23.2070 C   0  0  0  0  0  0  0  0  0  0  0  0
  -17.1580  -42.0540   22.4420 O   0  0  0  0  0  0  0  0  0  0  0  0
  -15.9640  -42.2010   23.1300 C   0  0  0  0  0  0  0  0  0  0  0  0
  -15.0520  -41.3880   23.1860 O   0  0  0  0  0  0  0  0  0  0  0  0
  -15.9530  -43.4220   23.7470 N   0  0  0  0  0  0  0  0  0  0  0  0
  -14.8180  -43.8940   24.5040 C   0  0  0  0  0  0  0  0  0  0  0  0
  -14.8390  -43.4030   25.9500 C   0  0  0  0  0  0  0  0  0  0  0  0
  -13.4450  -43.0140   26.4530 C   0  0  0  0  0  0  0  0  0  0  0  0
  -12.8790  -43.9830   27.4970 C   0  0  0  0  0  0  0  0  0  0  0  0
  -13.1930  -45.4520   27.1980 C   0  0  0  0  0  0  0  0  0  0  0  0
  -12.2280  -46.4270   27.8820 C   0  0  0  0  0  0  0  0  0  0  0  0
  -10.9600  -45.7530   28.4170 C   0  0  0  0  0  0  0  0  0  0  0  0
  -10.2890  -46.5650   29.5280 C   0  0  0  0  0  0  0  0  0  0  0  0
  -11.0490  -46.4460   30.7670 N   0  0  0  0  0  0  0  0  0  0  0  0
  -10.8370  -45.2700   31.5120 C   0  0  0  0  0  0  0  0  0  0  0  0
   -9.5220  -44.8710   31.8200 C   0  0  0  0  0  0  0  0  0  0  0  0
   -9.3560  -43.6960   32.5580 C   0  0  0  0  0  0  0  0  0  0  0  0
  -10.3900  -42.9140   32.9500 N   0  0  0  0  0  0  0  0  0  0  0  0
  -11.6380  -43.2890   32.6460 C   0  0  0  0  0  0  0  0  0  0  0  0
  -12.6840  -42.4750   33.0650 C   0  0  0  0  0  0  0  0  0  0  0  0
  -14.0180  -42.7850   32.7910 C   0  0  0  0  0  0  0  0  0  0  0  0
  -14.3220  -43.9360   32.0810 C   0  0  0  0  0  0  0  0  0  0  0  0
  -13.2890  -44.7670   31.6500 C   0  0  0  0  0  0  0  0  0  0  0  0
  -11.9320  -44.4620   31.9240 C   0  0  0  0  0  0  0  0  0  0  0  0
   -7.9900  -43.1830   32.9320 C   0  0  0  0  0  0  0  0  0  0  0  0
   -6.9160  -44.2640   32.9140 C   0  0  0  0  0  0  0  0  0  0  0  0
   -6.9870  -45.0390   31.6070 C   0  0  0  0  0  0  0  0  0  0  0  0
   -8.3370  -45.7410   31.4720 C   0  0  0  0  0  0  0  0  0  0  0  0
  -18.3440  -41.9780   24.5690 C   0  0  0  0  0  0  0  0  0  0  0  0
  -19.5020  -41.6100   25.2840 C   0  0  0  0  0  0  0  0  0  0  0  0
  1  2  1  0
  2  3  2  0
  2  4  1  0
  4  5  1  0
  5  6  1  0
  6  7  1  0
  7  8  2  0
  8  9  1  0
  9 10  1  0
 10 11  2  0
 11 12  1  0
 12 13  2  0
 13 14  1  0
 14 15  1  0
 15 16  2  0
 15 17  1  0
 17 18  1  0
 18 19  1  0
 19 20  1  0
 20 21  1  0
 21 22  1  0
 22 23  1  0
 23 24  1  0
 24 25  1  0
 25 26  1  0
 26 27  1  0
 27 28  2  0
 28 29  1  0
 29 30  2  0
 30 31  1  0
 31 32  2  0
 32 33  1  0
 33 34  2  0
 34 35  1  0
 35 36  2  0
 29 37  1  0
 37 38  1  0
 38 39  1  0
 39 40  1  0
 13 41  1  0
 41 42  2  0
 42  7  1  0
 42 10  1  0
 36 27  1  0
 40 28  1  0
 36 31  1  0
M  END
$$$$
