OZSJWTSKFVWRDI-OWTLIXCDSA-N
     RDKit          3D

 25 28  0  0  0  0  0  0  0  0999 V2000
  -13.1430   16.1130   21.5890 C   0  0  0  0  0  0  0  0  0  0  0  0
  -14.0780   16.2260   20.4750 N   0  0  0  0  0  0  0  0  0  0  0  0
  -14.8240   15.0490   20.2840 C   0  0  0  0  0  0  0  0  0  0  0  0
  -16.1840   15.1060   20.2850 N   0  0  0  0  0  0  0  0  0  0  0  0
  -16.8930   13.9740   20.1030 C   0  0  0  0  0  0  0  0  0  0  0  0
  -16.4290   12.7300   19.9030 N   0  0  0  0  0  0  0  0  0  0  0  0
  -15.0900   12.7120   19.8850 C   0  0  0  0  0  0  0  0  0  0  0  0
  -14.3350   11.5900   19.6790 N   0  0  0  0  0  0  0  0  0  0  0  0
  -13.0030   11.9160   19.6980 C   0  0  0  0  0  0  0  0  0  0  0  0
  -12.9090   13.2730   19.9250 C   0  0  0  0  0  0  0  0  0  0  0  0
  -14.2320   13.7880   20.0600 C   0  0  0  0  0  0  0  0  0  0  0  0
  -14.8500   17.4650   20.3380 C   0  0  1  0  0  0  0  0  0  0  0  0
  -14.3480   18.6040   21.2300 C   0  0  0  0  0  0  0  0  0  0  0  0
  -14.9470   19.8780   20.6140 C   0  0  2  0  0  0  0  0  0  0  0  0
  -16.3410   20.1960   21.1590 C   0  0  0  0  0  0  0  0  0  0  0  0
  -17.2560   19.6540   20.1800 N   0  0  0  0  0  0  0  0  0  0  0  0
  -18.5390   19.2940   20.5110 C   0  0  0  0  0  0  0  0  0  0  0  0
  -19.5250   19.7430   19.9160 O   0  0  0  0  0  0  0  0  0  0  0  0
  -18.7480   18.3090   21.6680 C   0  0  2  0  0  0  0  0  0  0  0  0
  -18.4900   16.9620   21.2420 O   0  0  0  0  0  0  0  0  0  0  0  0
  -20.1970   18.3720   22.1490 C   0  0  0  0  0  0  0  0  0  0  0  0
  -21.0650   17.8590   21.1320 O   0  0  0  0  0  0  0  0  0  0  0  0
  -16.6540   19.6870   18.8620 C   0  0  0  0  0  0  0  0  0  0  0  0
  -15.1530   19.5490   19.1180 C   0  0  2  0  0  0  0  0  0  0  0  0
  -14.6720   18.1020   18.9530 C   0  0  0  0  0  0  0  0  0  0  0  0
  1  2  1  0
  2  3  1  0
  3  4  2  0
  4  5  1  0
  5  6  2  0
  6  7  1  0
  7  8  1  0
  8  9  1  0
  9 10  2  0
 10 11  1  0
 12  2  1  6
 12 13  1  0
 14 13  1  1
 14 15  1  0
 15 16  1  0
 16 17  1  0
 17 18  2  0
 17 19  1  0
 19 20  1  6
 19 21  1  0
 21 22  1  0
 16 23  1  0
 24 23  1  1
 24 25  1  0
 11  3  1  0
 25 12  1  0
 11  7  2  0
 24 14  1  0
M  END
$$$$
