JTIBGKGGRQKKJP-UHFFFAOYSA-N
     RDKit          3D

 28 30  0  0  0  0  0  0  0  0999 V2000
   30.4320   42.5490   35.4070 C   0  0  0  0  0  0  0  0  0  0  0  0
   29.9950   42.4720   36.7600 O   0  0  0  0  0  0  0  0  0  0  0  0
   30.4730   43.5050   37.5440 C   0  0  0  0  0  0  0  0  0  0  0  0
   31.0520   44.5770   36.9600 N   0  0  0  0  0  0  0  0  0  0  0  0
   31.4980   45.5550   37.7970 C   0  0  0  0  0  0  0  0  0  0  0  0
   31.4020   45.5310   39.1900 C   0  0  0  0  0  0  0  0  0  0  0  0
   31.8780   46.5300   40.0490 N   0  0  0  0  0  0  0  0  0  0  0  0
   33.1730   46.8590   40.5000 C   0  0  0  0  0  0  0  0  0  0  0  0
   34.1300   47.0960   39.5710 N   0  0  0  0  0  0  0  0  0  0  0  0
   35.3910   47.3780   39.9740 C   0  0  0  0  0  0  0  0  0  0  0  0
   35.7950   47.4380   41.2960 C   0  0  0  0  0  0  0  0  0  0  0  0
   37.2250   47.7560   41.6930 C   0  0  0  0  0  0  0  0  0  0  0  0
   37.2630   48.7470   42.8640 C   0  0  0  0  0  0  0  0  0  0  0  0
   38.0200   48.3000   40.4990 C   0  0  0  0  0  0  0  0  0  0  0  0
   37.8820   46.5620   42.1310 O   0  0  0  0  0  0  0  0  0  0  0  0
   34.7960   47.1870   42.2460 C   0  0  0  0  0  0  0  0  0  0  0  0
   33.4600   46.8910   41.8820 C   0  0  0  0  0  0  0  0  0  0  0  0
   32.4550   46.6420   42.9380 C   0  0  0  0  0  0  0  0  0  0  0  0
   31.5290   45.6970   42.7250 N   0  0  0  0  0  0  0  0  0  0  0  0
   30.6460   45.5370   43.7120 C   0  0  0  0  0  0  0  0  0  0  0  0
   29.5700   44.5150   43.5230 C   0  0  0  0  0  0  0  0  0  0  0  0
   30.6310   46.2490   44.8370 N   0  0  0  0  0  0  0  0  0  0  0  0
   31.5850   47.1590   44.9470 C   0  0  0  0  0  0  0  0  0  0  0  0
   31.6110   47.9060   46.0880 N   0  0  0  0  0  0  0  0  0  0  0  0
   32.5140   47.4000   44.0360 N   0  0  0  0  0  0  0  0  0  0  0  0
   30.8020   44.3940   39.7430 C   0  0  0  0  0  0  0  0  0  0  0  0
   30.3330   43.3780   38.9170 C   0  0  0  0  0  0  0  0  0  0  0  0
   29.7580   42.2970   39.4660 F   0  0  0  0  0  0  0  0  0  0  0  0
  1  2  1  0
  2  3  1  0
  3  4  2  0
  4  5  1  0
  5  6  2  0
  6  7  1  0
  7  8  1  0
  8  9  2  0
  9 10  1  0
 10 11  2  0
 11 12  1  0
 12 13  1  0
 12 14  1  0
 12 15  1  0
 11 16  1  0
 16 17  2  0
 17 18  1  0
 18 19  2  0
 19 20  1  0
 20 21  1  0
 20 22  2  0
 22 23  1  0
 23 24  1  0
 23 25  2  0
  6 26  1  0
 26 27  2  0
 27 28  1  0
 27  3  1  0
 17  8  1  0
 25 18  1  0
M  END
$$$$
