YONOAVIZYZCVJG-FPOVZHCZSA-N
     RDKit          3D

 30 34  0  0  0  0  0  0  0  0999 V2000
  -24.3040   20.7180   21.4450 C   0  0  0  0  0  0  0  0  0  0  0  0
  -22.9170   20.3770   21.9710 C   0  0  0  0  0  0  0  0  0  0  0  0
  -22.6840   18.8640   22.1460 C   0  0  0  0  0  0  0  0  0  0  0  0
  -23.3020   18.3170   23.4480 C   0  0  0  0  0  0  0  0  0  0  0  0
  -24.5070   17.4150   23.2070 C   0  0  0  0  0  0  0  0  0  0  0  0
  -21.2530   18.5610   22.0550 N   0  0  0  0  0  0  0  0  0  0  0  0
  -20.4370   18.7050   20.9650 C   0  0  0  0  0  0  0  0  0  0  0  0
  -19.1750   18.2920   21.3520 C   0  0  0  0  0  0  0  0  0  0  0  0
  -17.9440   18.2180   20.5910 C   0  0  0  0  0  0  0  0  0  0  0  0
  -17.3670   17.0510   20.5200 N   0  0  0  0  0  0  0  0  0  0  0  0
  -16.2040   16.9190   19.7780 C   0  0  0  0  0  0  0  0  0  0  0  0
  -15.6640   15.5920   19.7710 C   0  0  0  0  0  0  0  0  0  0  0  0
  -16.3060   14.3910   19.3930 C   0  0  0  0  0  0  0  0  0  0  0  0
  -15.5160   13.3200   19.5110 N   0  0  0  0  0  0  0  0  0  0  0  0
  -14.3510   13.8360   19.9720 N   0  0  0  0  0  0  0  0  0  0  0  0
  -13.2370   12.9290   20.2410 C   0  0  1  0  0  0  0  0  0  0  0  0
  -13.5500   11.5830   19.8160 O   0  0  0  0  0  0  0  0  0  0  0  0
  -12.4390   11.0950   19.0510 C   0  0  0  0  0  0  0  0  0  0  0  0
  -11.2760   12.0240   19.3140 C   0  0  0  0  0  0  0  0  0  0  0  0
  -11.9750   13.3490   19.4850 C   0  0  2  0  0  0  0  0  0  0  0  0
  -11.1610   14.2740   20.1940 O   0  0  0  0  0  0  0  0  0  0  0  0
  -14.3950   15.1950   20.1360 C   0  0  0  0  0  0  0  0  0  0  0  0
  -15.6520   17.9570   19.1260 C   0  0  0  0  0  0  0  0  0  0  0  0
  -16.2410   19.2030   19.2080 N   0  0  0  0  0  0  0  0  0  0  0  0
  -15.8250   20.3620   18.6420 N   0  0  0  0  0  0  0  0  0  0  0  0
  -16.6890   21.2770   19.0790 C   0  0  0  0  0  0  0  0  0  0  0  0
  -17.6800   20.7290   19.9100 C   0  0  0  0  0  0  0  0  0  0  0  0
  -17.3910   19.3830   19.9530 C   0  0  0  0  0  0  0  0  0  0  0  0
  -19.3650   17.8830   22.6960 C   0  0  0  0  0  0  0  0  0  0  0  0
  -20.6140   18.0600   23.1280 N   0  0  0  0  0  0  0  0  0  0  0  0
  1  2  1  0
  2  3  1  0
  3  4  1  0
  4  5  1  0
  3  6  1  0
  6  7  1  0
  7  8  2  0
  8  9  1  0
  9 10  2  0
 10 11  1  0
 11 12  1  0
 12 13  1  0
 13 14  2  0
 14 15  1  0
 16 15  1  6
 16 17  1  0
 17 18  1  0
 18 19  1  0
 19 20  1  0
 20 21  1  1
 15 22  1  0
 11 23  2  0
 23 24  1  0
 24 25  1  0
 25 26  2  0
 26 27  1  0
 27 28  2  0
  8 29  1  0
 29 30  2  0
 30  6  1  0
 28  9  1  0
 22 12  2  0
 28 24  1  0
 20 16  1  0
M  END
$$$$
