PQJGWYQPOHCEDO-ZDUSSCGKSA-N
     RDKit          3D

 30 33  0  0  0  0  0  0  0  0999 V2000
   -6.6180    7.1370   19.5710 N   0  0  0  0  0  0  0  0  0  0  0  0
   -5.6830    7.2010   18.6780 C   0  0  0  0  0  0  0  0  0  0  0  0
   -4.9900    6.0680   18.4130 N   0  0  0  0  0  0  0  0  0  0  0  0
   -5.3610    8.4610   17.9620 C   0  0  0  0  0  0  0  0  0  0  0  0
   -5.1160    8.4420   16.5890 C   0  0  0  0  0  0  0  0  0  0  0  0
   -4.8220    9.6330   15.9270 C   0  0  0  0  0  0  0  0  0  0  0  0
   -4.7720   10.8350   16.6340 C   0  0  0  0  0  0  0  0  0  0  0  0
   -4.4870   11.9460   15.8910 O   0  0  0  0  0  0  0  0  0  0  0  0
   -4.9890   10.8730   18.0180 C   0  0  0  0  0  0  0  0  0  0  0  0
   -4.8890   12.1410   18.8240 C   0  0  0  0  0  0  0  0  0  0  0  0
   -4.3190   11.9020   20.1350 N   0  0  0  0  0  0  0  0  0  0  0  0
   -5.1120   11.6920   21.3190 C   0  0  0  0  0  0  0  0  0  0  0  0
   -4.1330   11.9380   22.4540 C   0  0  0  0  0  0  0  0  0  0  0  0
   -2.7840   11.5250   21.8690 C   0  0  2  0  0  0  0  0  0  0  0  0
   -1.6910   12.3240   22.4380 N   0  0  0  0  0  0  0  0  0  0  0  0
   -0.3600   11.4790   23.0190 S   0  0  0  0  0  0  0  0  0  0  0  0
   -0.0390   10.4760   22.0330 O   0  0  0  0  0  0  0  0  0  0  0  0
    0.5950   12.4530   23.5000 O   0  0  0  0  0  0  0  0  0  0  0  0
   -0.8900   10.5630   24.4430 C   0  0  0  0  0  0  0  0  0  0  0  0
   -2.0290   10.6180   25.2180 C   0  0  0  0  0  0  0  0  0  0  0  0
   -2.0120    9.6680   26.2770 C   0  0  0  0  0  0  0  0  0  0  0  0
   -2.9990    9.5140   27.2000 N   0  0  0  0  0  0  0  0  0  0  0  0
   -2.7930    8.5500   28.1190 C   0  0  0  0  0  0  0  0  0  0  0  0
   -1.6760    7.7340   28.1840 C   0  0  0  0  0  0  0  0  0  0  0  0
   -0.6680    7.8980   27.2400 C   0  0  0  0  0  0  0  0  0  0  0  0
   -0.8540    8.8920   26.2700 C   0  0  0  0  0  0  0  0  0  0  0  0
    0.1820    9.3440   24.9780 S   0  0  0  0  0  0  0  0  0  0  0  0
   -2.9660   11.8490   20.3980 C   0  0  0  0  0  0  0  0  0  0  0  0
   -2.0680   12.0430   19.5900 O   0  0  0  0  0  0  0  0  0  0  0  0
   -5.3010    9.6670   18.6740 C   0  0  0  0  0  0  0  0  0  0  0  0
  1  2  2  0
  2  3  1  0
  2  4  1  0
  4  5  2  0
  5  6  1  0
  6  7  2  0
  7  8  1  0
  7  9  1  0
  9 10  1  0
 10 11  1  0
 11 12  1  0
 12 13  1  0
 13 14  1  0
 14 15  1  1
 15 16  1  0
 16 17  2  0
 16 18  2  0
 16 19  1  0
 19 20  2  0
 20 21  1  0
 21 22  2  0
 22 23  1  0
 23 24  2  0
 24 25  1  0
 25 26  2  0
 26 27  1  0
 14 28  1  0
 28 29  2  0
  9 30  2  0
 30  4  1  0
 28 11  1  0
 27 19  1  0
 26 21  1  0
M  END
$$$$
