RYFYERZCXQBRAD-UHFFFAOYSA-N
     RDKit          3D

 30 32  0  0  0  0  0  0  0  0999 V2000
  134.1430  117.0480   36.4640 C   0  0  0  0  0  0  0  0  0  0  0  0
  134.1990  117.8530   37.3530 C   0  0  0  0  0  0  0  0  0  0  0  0
  134.2790  118.8250   38.4520 C   0  0  0  0  0  0  0  0  0  0  0  0
  134.6900  118.1700   39.6840 N   0  0  0  0  0  0  0  0  0  0  0  0
  133.6670  117.5060   40.4840 C   0  0  0  0  0  0  0  0  0  0  0  0
  133.1690  118.3970   41.6110 C   0  0  0  0  0  0  0  0  0  0  0  0
  136.0100  118.1410   40.1120 C   0  0  0  0  0  0  0  0  0  0  0  0
  136.8240  119.0150   39.8350 O   0  0  0  0  0  0  0  0  0  0  0  0
  136.3000  117.0130   40.8820 O   0  0  0  0  0  0  0  0  0  0  0  0
  137.1770  115.9110   40.5750 C   0  0  0  0  0  0  0  0  0  0  0  0
  138.4120  115.9680   41.2340 C   0  0  0  0  0  0  0  0  0  0  0  0
  139.3750  114.9870   41.0270 C   0  0  0  0  0  0  0  0  0  0  0  0
  139.1310  113.9290   40.1460 C   0  0  0  0  0  0  0  0  0  0  0  0
  137.8980  113.8530   39.4610 C   0  0  0  0  0  0  0  0  0  0  0  0
  137.3550  112.9400   38.4950 C   0  0  0  0  0  0  0  0  0  0  0  0
  138.0360  111.7360   37.9090 C   0  0  0  0  0  0  0  0  0  0  0  0
  138.3670  110.7550   38.9590 N   0  0  0  0  0  0  0  0  0  0  0  0
  139.1280  109.6330   38.4000 C   0  0  0  0  0  0  0  0  0  0  0  0
  137.1670  110.2460   39.6430 C   0  0  0  0  0  0  0  0  0  0  0  0
  137.1430  110.4560   41.1680 C   0  0  0  0  0  0  0  0  0  0  0  0
  136.1120  111.4910   41.6860 C   0  0  0  0  0  0  0  0  0  0  0  0
  134.8270  111.4250   40.8380 C   0  0  0  0  0  0  0  0  0  0  0  0
  133.6710  112.2960   41.3220 C   0  0  0  0  0  0  0  0  0  0  0  0
  134.1310  113.6850   41.7600 C   0  0  0  0  0  0  0  0  0  0  0  0
  134.9120  113.6960   43.0900 C   0  0  0  0  0  0  0  0  0  0  0  0
  134.9260  112.3560   43.8210 C   0  0  0  0  0  0  0  0  0  0  0  0
  135.9000  111.3530   43.2030 C   0  0  0  0  0  0  0  0  0  0  0  0
  136.0930  113.4100   38.1800 C   0  0  0  0  0  0  0  0  0  0  0  0
  135.8510  114.5320   38.9170 N   0  0  0  0  0  0  0  0  0  0  0  0
  136.9390  114.8480   39.6940 C   0  0  0  0  0  0  0  0  0  0  0  0
  1  2  3  0
  2  3  1  0
  3  4  1  0
  4  5  1  0
  5  6  1  0
  4  7  1  0
  7  8  2  0
  7  9  1  0
  9 10  1  0
 10 11  2  0
 11 12  1  0
 12 13  2  0
 13 14  1  0
 14 15  1  0
 15 16  1  0
 16 17  1  0
 17 18  1  0
 17 19  1  0
 19 20  1  0
 20 21  1  0
 21 22  1  0
 22 23  1  0
 23 24  1  0
 24 25  1  0
 25 26  1  0
 26 27  1  0
 15 28  2  0
 28 29  1  0
 29 30  1  0
 30 10  1  0
 30 14  2  0
 27 21  1  0
M  END
$$$$
