PVKAOBUBUDQDRR-UHFFFAOYSA-N
     RDKit          3D

 24 26  0  0  0  0  0  0  0  0999 V2000
  133.8390  117.2720   39.6560 C   0  0  0  0  0  0  0  0  0  0  0  0
  133.4220  117.9470   40.7950 C   0  0  0  0  0  0  0  0  0  0  0  0
  132.8870  117.2270   41.8580 C   0  0  0  0  0  0  0  0  0  0  0  0
  132.7600  115.8800   41.7850 N   0  0  0  0  0  0  0  0  0  0  0  0
  132.2140  115.1260   42.9390 C   0  0  0  0  0  0  0  0  0  0  0  0
  132.6330  113.6580   42.8850 C   0  0  0  0  0  0  0  0  0  0  0  0
  133.7280  113.2920   43.8930 C   0  0  0  0  0  0  0  0  0  0  0  0
  134.9460  112.6810   43.1880 C   0  0  0  0  0  0  0  0  0  0  0  0
  134.5630  111.9770   41.8820 C   0  0  0  0  0  0  0  0  0  0  0  0
  135.5710  110.8780   41.5240 C   0  0  0  0  0  0  0  0  0  0  0  0
  137.0180  111.3490   41.7010 C   0  0  0  0  0  0  0  0  0  0  0  0
  137.5020  112.1310   40.4830 C   0  0  0  0  0  0  0  0  0  0  0  0
  138.1250  113.4020   40.9250 N   0  0  0  0  0  0  0  0  0  0  0  0
  137.3840  114.5340   40.9640 C   0  0  0  0  0  0  0  0  0  0  0  0
  137.9470  115.7380   41.3660 C   0  0  0  0  0  0  0  0  0  0  0  0
  139.2940  115.7860   41.7330 C   0  0  0  0  0  0  0  0  0  0  0  0
  139.9000  116.9820   42.1440 C   0  0  0  0  0  0  0  0  0  0  0  0
  141.2490  117.0050   42.5020 C   0  0  0  0  0  0  0  0  0  0  0  0
  142.0050  115.8380   42.4530 C   0  0  0  0  0  0  0  0  0  0  0  0
  141.4140  114.6410   42.0450 C   0  0  0  0  0  0  0  0  0  0  0  0
  140.0580  114.6040   41.6820 C   0  0  0  0  0  0  0  0  0  0  0  0
  139.4350  113.4230   41.2680 C   0  0  0  0  0  0  0  0  0  0  0  0
  133.1760  115.2090   40.6840 C   0  0  0  0  0  0  0  0  0  0  0  0
  133.7160  115.8910   39.6000 C   0  0  0  0  0  0  0  0  0  0  0  0
  1  2  2  0
  2  3  1  0
  3  4  2  0
  4  5  1  0
  5  6  1  0
  6  7  1  0
  7  8  1  0
  8  9  1  0
  9 10  1  0
 10 11  1  0
 11 12  1  0
 12 13  1  0
 13 14  2  0
 14 15  1  0
 15 16  2  0
 16 17  1  0
 17 18  2  0
 18 19  1  0
 19 20  2  0
 20 21  1  0
 21 22  2  0
  4 23  1  0
 23 24  2  0
 24  1  1  0
 22 13  1  0
 21 16  1  0
M  CHG  2   4   1  13   1
M  END
$$$$
