LMRBMFGYPWUSQY-HXUWFJFHSA-N
     RDKit          3D

 34 38  0  0  0  0  0  0  0  0999 V2000
   -5.0610   33.6550  -28.7740 C   0  0  0  0  0  0  0  0  0  0  0  0
   -5.0140   32.1380  -28.6350 C   0  0  0  0  0  0  0  0  0  0  0  0
   -3.9070   31.4890  -29.4930 C   0  0  0  0  0  0  0  0  0  0  0  0
   -2.6790   31.1510  -28.6240 C   0  0  0  0  0  0  0  0  0  0  0  0
   -3.0270   30.9420  -27.1550 C   0  0  0  0  0  0  0  0  0  0  0  0
   -4.3990   30.3210  -30.2220 N   0  0  0  0  0  0  0  0  0  0  0  0
   -4.0020   29.0180  -30.0780 C   0  0  0  0  0  0  0  0  0  0  0  0
   -4.7700   28.2670  -30.9480 C   0  0  0  0  0  0  0  0  0  0  0  0
   -4.7650   26.8400  -31.2040 C   0  0  0  0  0  0  0  0  0  0  0  0
   -4.0410   26.1030  -30.4090 N   0  0  0  0  0  0  0  0  0  0  0  0
   -4.0090   24.7330  -30.6090 C   0  0  0  0  0  0  0  0  0  0  0  0
   -3.1740   24.0260  -29.6860 C   0  0  0  0  0  0  0  0  0  0  0  0
   -2.1510   23.0960  -29.9700 C   0  0  0  0  0  0  0  0  0  0  0  0
   -1.5660   22.6230  -28.8640 N   0  0  0  0  0  0  0  0  0  0  0  0
   -2.2440   23.2210  -27.8680 N   0  0  0  0  0  0  0  0  0  0  0  0
   -1.9240   22.9090  -26.4930 C   0  0  0  0  0  0  0  0  0  0  0  0
   -1.0120   23.9340  -25.8200 C   0  0  2  0  0  0  0  0  0  0  0  0
    0.2120   24.0090  -26.5750 O   0  0  0  0  0  0  0  0  0  0  0  0
   -0.6680   23.5570  -24.3610 C   0  0  0  0  0  0  0  0  0  0  0  0
    0.6470   22.8860  -24.3150 N   0  0  0  0  0  0  0  0  0  0  0  0
    1.2460   22.9880  -22.9530 C   0  0  0  0  0  0  0  0  0  0  0  0
    1.6600   21.5010  -23.0850 C   0  0  0  0  0  0  0  0  0  0  0  0
    1.5710   20.7030  -21.8820 O   0  0  0  0  0  0  0  0  0  0  0  0
    2.6100   19.7520  -21.7010 C   0  0  0  0  0  0  0  0  0  0  0  0
    0.4710   21.4280  -24.0760 C   0  0  0  0  0  0  0  0  0  0  0  0
   -3.2030   24.0890  -28.3080 C   0  0  0  0  0  0  0  0  0  0  0  0
   -4.7100   24.1350  -31.5890 C   0  0  0  0  0  0  0  0  0  0  0  0
   -5.4770   24.9040  -32.4430 N   0  0  0  0  0  0  0  0  0  0  0  0
   -6.2370   24.4880  -33.4840 N   0  0  0  0  0  0  0  0  0  0  0  0
   -6.7070   25.6120  -34.0250 C   0  0  0  0  0  0  0  0  0  0  0  0
   -6.2820   26.7590  -33.3350 C   0  0  0  0  0  0  0  0  0  0  0  0
   -5.5170   26.2780  -32.2970 C   0  0  0  0  0  0  0  0  0  0  0  0
   -5.5700   29.2400  -31.5970 C   0  0  0  0  0  0  0  0  0  0  0  0
   -5.3610   30.4790  -31.1460 N   0  0  0  0  0  0  0  0  0  0  0  0
  1  2  1  0
  2  3  1  0
  3  4  1  0
  4  5  1  0
  3  6  1  0
  6  7  1  0
  7  8  2  0
  8  9  1  0
  9 10  2  0
 10 11  1  0
 11 12  1  0
 12 13  1  0
 13 14  2  0
 14 15  1  0
 15 16  1  0
 16 17  1  0
 17 18  1  6
 17 19  1  0
 19 20  1  0
 20 21  1  0
 21 22  1  0
 22 23  1  0
 23 24  1  0
 22 25  1  0
 15 26  1  0
 11 27  2  0
 27 28  1  0
 28 29  1  0
 29 30  2  0
 30 31  1  0
 31 32  2  0
  8 33  1  0
 33 34  2  0
 34  6  1  0
 32  9  1  0
 26 12  2  0
 32 28  1  0
 25 20  1  0
M  END
$$$$
