KJZFJLLCNRUWRW-UUILKARUSA-N
     RDKit          3D

 17 18  0  0  0  0  0  0  0  0999 V2000
   17.4320   -0.9520   26.6950 O   0  0  0  0  0  0  0  0  0  0  0  0
   16.9340    0.1630   26.5830 C   0  0  0  0  0  0  0  0  0  0  0  0
   17.5500    1.2230   25.6990 C   0  0  0  0  0  0  0  0  0  0  0  0
   16.5050    2.6760   25.9250 S   0  0  0  0  0  0  0  0  0  0  0  0
   15.4630    1.7760   27.0070 C   0  0  0  0  0  0  0  0  0  0  0  0
   14.3890    2.4860   27.4850 N   0  0  0  0  0  0  0  0  0  0  0  0
   13.3420    2.0830   28.2630 N   0  0  0  0  0  0  0  0  0  0  0  0
   13.3410    2.4680   29.5020 C   0  0  0  0  0  0  0  0  0  0  0  0
   12.2730    2.0460   30.4330 C   0  0  0  0  0  0  0  0  0  0  0  0
   12.6560    1.4510   31.6380 C   0  0  0  0  0  0  0  0  0  0  0  0
   11.6740    1.0460   32.5380 C   0  0  0  0  0  0  0  0  0  0  0  0
   12.0390    0.4790   33.6940 F   0  0  0  0  0  0  0  0  0  0  0  0
   10.3220    1.2210   32.2590 C   0  0  0  0  0  0  0  0  0  0  0  0
    9.9390    1.8120   31.0550 C   0  0  0  0  0  0  0  0  0  0  0  0
   10.9120    2.2220   30.1450 C   0  0  0  0  0  0  0  0  0  0  0  0
   10.4600    2.7900   28.9860 O   0  0  0  0  0  0  0  0  0  0  0  0
   15.7920    0.5510   27.2400 N   0  0  0  0  0  0  0  0  0  0  0  0
  1  2  2  0
  2  3  1  0
  3  4  1  0
  4  5  1  0
  5  6  1  0
  6  7  1  0
  7  8  2  0
  8  9  1  0
  9 10  2  0
 10 11  1  0
 11 12  1  0
 11 13  2  0
 13 14  1  0
 14 15  2  0
 15 16  1  0
  5 17  2  0
 17  2  1  0
 15  9  1  0
M  END
$$$$
