CNLKMAASBAEKQE-UHFFFAOYSA-N
     RDKit          3D

 40 43  0  0  0  0  0  0  0  0999 V2000
    0.5830   27.4770  -24.8890 C   0  0  0  0  0  0  0  0  0  0  0  0
   -0.0540   26.6120  -25.8400 N   0  0  0  0  0  0  0  0  0  0  0  0
   -0.9710   25.6500  -25.4800 C   0  0  0  0  0  0  0  0  0  0  0  0
   -1.3190   25.4490  -24.3200 O   0  0  0  0  0  0  0  0  0  0  0  0
   -1.5040   24.8970  -26.6270 C   0  0  0  0  0  0  0  0  0  0  0  0
   -1.1790   23.5940  -26.8190 N   0  0  0  0  0  0  0  0  0  0  0  0
   -1.8320   23.2730  -27.9550 N   0  0  0  0  0  0  0  0  0  0  0  0
   -2.5540   24.2970  -28.4850 C   0  0  0  0  0  0  0  0  0  0  0  0
   -3.2930   24.2440  -29.6020 N   0  0  0  0  0  0  0  0  0  0  0  0
   -3.8680   25.4320  -29.8720 C   0  0  0  0  0  0  0  0  0  0  0  0
   -4.7170   25.4930  -31.0800 C   0  0  0  0  0  0  0  0  0  0  0  0
   -5.1360   26.7660  -31.5310 C   0  0  0  0  0  0  0  0  0  0  0  0
   -5.9210   26.9030  -32.6680 C   0  0  0  0  0  0  0  0  0  0  0  0
   -6.2960   28.1230  -33.0790 F   0  0  0  0  0  0  0  0  0  0  0  0
   -6.3190   25.7890  -33.3870 C   0  0  0  0  0  0  0  0  0  0  0  0
   -7.0890   25.9090  -34.5070 O   0  0  0  0  0  0  0  0  0  0  0  0
   -5.9380   24.5210  -32.9720 C   0  0  0  0  0  0  0  0  0  0  0  0
   -5.1370   24.3520  -31.8200 C   0  0  0  0  0  0  0  0  0  0  0  0
   -4.8070   22.9220  -31.4130 C   0  0  0  0  0  0  0  0  0  0  0  0
   -5.1240   21.8850  -32.4780 C   0  0  0  0  0  0  0  0  0  0  0  0
   -4.4120   20.7490  -32.2750 F   0  0  0  0  0  0  0  0  0  0  0  0
   -6.4290   21.5430  -32.5110 F   0  0  0  0  0  0  0  0  0  0  0  0
   -4.7880   22.3310  -33.7130 F   0  0  0  0  0  0  0  0  0  0  0  0
   -3.7770   26.5540  -29.1280 N   0  0  0  0  0  0  0  0  0  0  0  0
   -3.0320   26.5650  -27.9950 C   0  0  0  0  0  0  0  0  0  0  0  0
   -2.9610   27.6980  -27.2240 N   0  0  0  0  0  0  0  0  0  0  0  0
   -3.3980   29.0030  -27.6910 C   0  0  0  0  0  0  0  0  0  0  0  0
   -2.4520   30.0910  -27.2370 C   0  0  0  0  0  0  0  0  0  0  0  0
   -1.1510   29.7460  -26.9950 N   0  0  0  0  0  0  0  0  0  0  0  0
   -0.3520   30.7290  -26.5220 C   0  0  0  0  0  0  0  0  0  0  0  0
   -0.8150   32.0120  -26.2950 C   0  0  0  0  0  0  0  0  0  0  0  0
   -2.0940   32.3800  -26.5320 N   0  0  0  0  0  0  0  0  0  0  0  0
   -2.9030   31.3960  -26.9960 C   0  0  0  0  0  0  0  0  0  0  0  0
   -4.2300   31.8210  -27.2840 N   0  0  0  0  0  0  0  0  0  0  0  0
   -4.8990   32.5970  -26.2270 C   0  0  0  0  0  0  0  0  0  0  0  0
   -4.4760   32.3090  -28.8790 S   0  0  0  0  0  0  0  0  0  0  0  0
   -5.3740   33.8440  -28.7340 C   0  0  0  0  0  0  0  0  0  0  0  0
   -3.1900   32.6000  -29.4810 O   0  0  0  0  0  0  0  0  0  0  0  0
   -5.3680   31.3490  -29.4970 O   0  0  0  0  0  0  0  0  0  0  0  0
   -2.3720   25.3780  -27.6500 C   0  0  0  0  0  0  0  0  0  0  0  0
  1  2  1  0
  2  3  1  0
  3  4  2  0
  3  5  1  0
  5  6  2  0
  6  7  1  0
  7  8  1  0
  8  9  2  0
  9 10  1  0
 10 11  1  0
 11 12  2  0
 12 13  1  0
 13 14  1  0
 13 15  2  0
 15 16  1  0
 15 17  1  0
 17 18  2  0
 18 19  1  0
 19 20  1  0
 20 21  1  0
 20 22  1  0
 20 23  1  0
 10 24  2  0
 24 25  1  0
 25 26  1  0
 26 27  1  0
 27 28  1  0
 28 29  2  0
 29 30  1  0
 30 31  2  0
 31 32  1  0
 32 33  2  0
 33 34  1  0
 34 35  1  0
 34 36  1  0
 36 37  1  0
 36 38  2  0
 36 39  2  0
 25 40  2  0
 40  5  1  0
 40  8  1  0
 18 11  1  0
 33 28  1  0
M  END
$$$$
