SQODDGQIFANIPN-UHFFFAOYSA-N
     RDKit          3D

 30 32  0  0  0  0  0  0  0  0999 V2000
    8.5690    3.6370   -2.5350 C   0  0  0  0  0  0  0  0  0  0  0  0
    9.6280    3.0720   -3.3870 C   0  0  0  0  0  0  0  0  0  0  0  0
   10.8150    2.7650   -2.7860 O   0  0  0  0  0  0  0  0  0  0  0  0
   11.5900    2.2600   -3.7980 C   0  0  0  0  0  0  0  0  0  0  0  0
   12.9430    1.8380   -3.4470 C   0  0  0  0  0  0  0  0  0  0  0  0
   13.5710    2.3880   -2.3180 C   0  0  0  0  0  0  0  0  0  0  0  0
   14.8650    2.0040   -1.9580 C   0  0  0  0  0  0  0  0  0  0  0  0
   15.5500    1.0630   -2.7230 C   0  0  0  0  0  0  0  0  0  0  0  0
   14.9430    0.5060   -3.8470 C   0  0  0  0  0  0  0  0  0  0  0  0
   13.6480    0.8910   -4.2060 C   0  0  0  0  0  0  0  0  0  0  0  0
   10.9850    2.2270   -4.9710 N   0  0  0  0  0  0  0  0  0  0  0  0
    9.7310    2.7400   -4.7210 C   0  0  0  0  0  0  0  0  0  0  0  0
    8.7240    2.8670   -5.8100 C   0  0  0  0  0  0  0  0  0  0  0  0
    8.6440    4.2910   -6.3660 C   0  0  0  0  0  0  0  0  0  0  0  0
    9.9360    4.8340   -6.6670 O   0  0  0  0  0  0  0  0  0  0  0  0
   10.0550    5.3800   -7.9280 C   0  0  0  0  0  0  0  0  0  0  0  0
   10.1290    4.4790   -8.9780 C   0  0  0  0  0  0  0  0  0  0  0  0
   10.2200    4.9780  -10.2730 C   0  0  0  0  0  0  0  0  0  0  0  0
   10.2340    6.3590  -10.4810 C   0  0  0  0  0  0  0  0  0  0  0  0
   10.3130    6.9420  -11.8710 C   0  0  0  0  0  0  0  0  0  0  0  0
   11.4240    8.0070  -12.0140 C   0  0  1  0  0  0  0  0  0  0  0  0
   12.6040    7.3650  -12.7230 C   0  0  0  0  0  0  0  0  0  0  0  0
   13.7220    7.8340  -12.8540 O   0  0  0  0  0  0  0  0  0  0  0  0
   12.3060    6.1550  -13.2350 O   0  0  0  0  0  0  0  0  0  0  0  0
   10.9720    9.3290  -12.7250 C   0  0  0  0  0  0  0  0  0  0  0  0
    9.4410    9.4960  -12.6010 C   0  0  0  0  0  0  0  0  0  0  0  0
   11.3380    9.3510  -14.2210 C   0  0  0  0  0  0  0  0  0  0  0  0
   11.6200   10.5550  -12.0450 C   0  0  0  0  0  0  0  0  0  0  0  0
   10.1520    7.1770   -9.3570 C   0  0  0  0  0  0  0  0  0  0  0  0
   10.0570    6.7180   -8.0890 N   0  0  0  0  0  0  0  0  0  0  0  0
  1  2  1  0
  2  3  1  0
  3  4  1  0
  4  5  1  0
  5  6  2  0
  6  7  1  0
  7  8  2  0
  8  9  1  0
  9 10  2  0
  4 11  2  0
 11 12  1  0
 12 13  1  0
 13 14  1  0
 14 15  1  0
 15 16  1  0
 16 17  2  0
 17 18  1  0
 18 19  2  0
 19 20  1  0
 21 20  1  6
 21 22  1  0
 22 23  2  0
 22 24  1  0
 21 25  1  0
 25 26  1  0
 25 27  1  0
 25 28  1  0
 19 29  1  0
 29 30  2  0
 12  2  2  0
 30 16  1  0
 10  5  1  0
M  END
$$$$
