DRUZWKULMZFMLK-UHFFFAOYSA-N
     RDKit          3D

 37 40  0  0  0  0  0  0  0  0999 V2000
  128.0000  -14.7360  159.2950 C   0  0  0  0  0  0  0  0  0  0  0  0
  128.0290  -13.9780  160.4980 O   0  0  0  0  0  0  0  0  0  0  0  0
  128.2470  -14.6820  161.6560 C   0  0  0  0  0  0  0  0  0  0  0  0
  128.7390  -15.9940  161.6840 C   0  0  0  0  0  0  0  0  0  0  0  0
  128.9640  -16.6540  162.9050 C   0  0  0  0  0  0  0  0  0  0  0  0
  129.5540  -18.0580  162.9570 C   0  0  2  0  0  0  0  0  0  0  0  0
  128.6880  -18.8750  163.8300 N   0  0  0  0  0  0  0  0  0  0  0  0
  127.5880  -19.5990  163.4080 C   0  0  0  0  0  0  0  0  0  0  0  0
  126.2860  -19.0880  163.3830 C   0  0  0  0  0  0  0  0  0  0  0  0
  125.2120  -19.8550  162.9110 C   0  0  0  0  0  0  0  0  0  0  0  0
  125.4330  -21.1510  162.4440 C   0  0  0  0  0  0  0  0  0  0  0  0
  124.2970  -21.9640  161.9370 C   0  0  0  0  0  0  0  0  0  0  0  0
  123.5750  -21.5900  160.9290 N   0  0  0  0  0  0  0  0  0  0  0  0
  123.9760  -23.1380  162.5330 N   0  0  0  0  0  0  0  0  0  0  0  0
  126.7260  -21.6730  162.4410 C   0  0  0  0  0  0  0  0  0  0  0  0
  127.7890  -20.8960  162.9140 C   0  0  0  0  0  0  0  0  0  0  0  0
  131.0340  -18.0500  163.4320 C   0  0  0  0  0  0  0  0  0  0  0  0
  131.6540  -19.0780  163.6980 O   0  0  0  0  0  0  0  0  0  0  0  0
  131.6060  -16.7950  163.4880 N   0  0  0  0  0  0  0  0  0  0  0  0
  132.9910  -16.5710  163.8080 C   0  0  0  0  0  0  0  0  0  0  0  0
  133.1520  -16.2210  165.2640 C   0  0  0  0  0  0  0  0  0  0  0  0
  134.3670  -15.7200  165.7520 C   0  0  0  0  0  0  0  0  0  0  0  0
  134.5100  -15.4090  167.1060 C   0  0  0  0  0  0  0  0  0  0  0  0
  133.4460  -15.5990  167.9840 C   0  0  0  0  0  0  0  0  0  0  0  0
  132.2380  -16.1080  167.5120 C   0  0  0  0  0  0  0  0  0  0  0  0
  132.0940  -16.4240  166.1600 C   0  0  0  0  0  0  0  0  0  0  0  0
  128.7090  -15.9620  164.0980 C   0  0  0  0  0  0  0  0  0  0  0  0
  128.2290  -14.6500  164.0770 C   0  0  0  0  0  0  0  0  0  0  0  0
  127.9970  -14.0000  162.8610 C   0  0  0  0  0  0  0  0  0  0  0  0
  127.5300  -12.7160  162.7390 O   0  0  0  0  0  0  0  0  0  0  0  0
  126.1210  -12.5230  162.6400 C   0  0  0  0  0  0  0  0  0  0  0  0
  125.4990  -12.6150  164.0150 C   0  0  0  0  0  0  0  0  0  0  0  0
  125.6460  -11.5630  164.9320 C   0  0  0  0  0  0  0  0  0  0  0  0
  125.0440  -11.6300  166.1900 C   0  0  0  0  0  0  0  0  0  0  0  0
  124.2820  -12.7420  166.5420 C   0  0  0  0  0  0  0  0  0  0  0  0
  124.1200  -13.7890  165.6360 C   0  0  0  0  0  0  0  0  0  0  0  0
  124.7210  -13.7240  164.3780 C   0  0  0  0  0  0  0  0  0  0  0  0
  1  2  1  0
  2  3  1  0
  3  4  2  0
  4  5  1  0
  5  6  1  0
  6  7  1  1
  7  8  1  0
  8  9  2  0
  9 10  1  0
 10 11  2  0
 11 12  1  0
 12 13  2  0
 12 14  1  0
 11 15  1  0
 15 16  2  0
  6 17  1  0
 17 18  2  0
 17 19  1  0
 19 20  1  0
 20 21  1  0
 21 22  2  0
 22 23  1  0
 23 24  2  0
 24 25  1  0
 25 26  2  0
  5 27  2  0
 27 28  1  0
 28 29  2  0
 29 30  1  0
 30 31  1  0
 31 32  1  0
 32 33  2  0
 33 34  1  0
 34 35  2  0
 35 36  1  0
 36 37  2  0
 29  3  1  0
 37 32  1  0
 16  8  1  0
 26 21  1  0
M  END
$$$$
