LREJPDVGVCQBEA-UHFFFAOYSA-N
     RDKit          3D

 40 44  0  0  0  0  0  0  0  0999 V2000
   15.8130    4.1300   25.7380 C   0  0  0  0  0  0  0  0  0  0  0  0
   16.5170    2.8180   25.6630 C   0  0  0  0  0  0  0  0  0  0  0  0
   17.5900    2.5190   24.8220 C   0  0  0  0  0  0  0  0  0  0  0  0
   18.2250    3.3410   23.8090 C   0  0  0  0  0  0  0  0  0  0  0  0
   18.2190    3.0670   22.6150 O   0  0  0  0  0  0  0  0  0  0  0  0
   18.8340    4.4740   24.3040 N   0  0  0  0  0  0  0  0  0  0  0  0
   19.5820    5.3750   23.4470 C   0  0  0  0  0  0  0  0  0  0  0  0
   19.1090    6.8210   23.5880 C   0  0  0  0  0  0  0  0  0  0  0  0
   17.6090    6.9100   23.8930 C   0  0  0  0  0  0  0  0  0  0  0  0
   16.8240    7.4450   22.7690 N   0  0  0  0  0  0  0  0  0  0  0  0
   16.5000    6.3830   21.7880 C   0  0  0  0  0  0  0  0  0  0  0  0
   15.4360    5.3640   22.2600 C   0  0  0  0  0  0  0  0  0  0  0  0
   14.1840    6.0220   22.6740 N   0  0  0  0  0  0  0  0  0  0  0  0
   13.2270    5.0450   23.1900 C   0  0  0  0  0  0  0  0  0  0  0  0
   14.4580    7.0720   23.6700 C   0  0  0  0  0  0  0  0  0  0  0  0
   15.5500    8.0660   23.2020 C   0  0  0  0  0  0  0  0  0  0  0  0
   17.9400    1.2160   25.0750 N   0  0  0  0  0  0  0  0  0  0  0  0
   17.1570    0.6690   26.0580 C   0  0  0  0  0  0  0  0  0  0  0  0
   17.1990   -0.5990   26.6080 C   0  0  0  0  0  0  0  0  0  0  0  0
   16.3080   -0.8930   27.5620 N   0  0  0  0  0  0  0  0  0  0  0  0
   15.3630    0.0390   27.9650 N   0  0  0  0  0  0  0  0  0  0  0  0
   15.2640    1.2950   27.4460 C   0  0  0  0  0  0  0  0  0  0  0  0
   14.2760    2.1930   27.8830 N   0  0  0  0  0  0  0  0  0  0  0  0
   13.2190    2.0660   28.8010 C   0  0  0  0  0  0  0  0  0  0  0  0
   11.9170    2.3460   28.3600 C   0  0  0  0  0  0  0  0  0  0  0  0
   10.8120    2.2600   29.2180 C   0  0  0  0  0  0  0  0  0  0  0  0
   10.9810    1.8860   30.5500 C   0  0  0  0  0  0  0  0  0  0  0  0
    9.9720    1.7790   31.4690 O   0  0  0  0  0  0  0  0  0  0  0  0
    8.6930    1.2950   31.0560 C   0  0  0  0  0  0  0  0  0  0  0  0
    8.4200   -0.1200   31.5160 C   0  0  0  0  0  0  0  0  0  0  0  0
    7.1720   -0.4490   32.0700 C   0  0  0  0  0  0  0  0  0  0  0  0
    6.8910   -1.7600   32.4710 C   0  0  0  0  0  0  0  0  0  0  0  0
    7.8540   -2.7570   32.3110 C   0  0  0  0  0  0  0  0  0  0  0  0
    9.0840   -2.4370   31.7490 C   0  0  0  0  0  0  0  0  0  0  0  0
   10.0030   -3.3980   31.5870 F   0  0  0  0  0  0  0  0  0  0  0  0
    9.3730   -1.1360   31.3470 C   0  0  0  0  0  0  0  0  0  0  0  0
   12.2810    1.6210   31.0050 C   0  0  0  0  0  0  0  0  0  0  0  0
   12.5760    1.1620   32.6490 Cl  0  0  0  0  0  0  0  0  0  0  0  0
   13.3810    1.7120   30.1420 C   0  0  0  0  0  0  0  0  0  0  0  0
   16.2270    1.6350   26.4500 C   0  0  0  0  0  0  0  0  0  0  0  0
  1  2  1  0
  2  3  2  0
  3  4  1  0
  4  5  2  0
  4  6  1  0
  6  7  1  0
  7  8  1  0
  8  9  1  0
  9 10  1  0
 10 11  1  0
 11 12  1  0
 12 13  1  0
 13 14  1  0
 13 15  1  0
 15 16  1  0
  3 17  1  0
 17 18  1  0
 18 19  2  0
 19 20  1  0
 20 21  2  0
 21 22  1  0
 22 23  1  0
 23 24  1  0
 24 25  2  0
 25 26  1  0
 26 27  2  0
 27 28  1  0
 28 29  1  0
 29 30  1  0
 30 31  2  0
 31 32  1  0
 32 33  2  0
 33 34  1  0
 34 35  1  0
 34 36  2  0
 27 37  1  0
 37 38  1  0
 37 39  2  0
 22 40  2  0
 40  2  1  0
 16 10  1  0
 40 18  1  0
 39 24  1  0
 36 30  1  0
M  END
$$$$
