MMUPKVYIRSGJIV-UHFFFAOYSA-N
     RDKit          3D

 30 31  0  0  0  0  0  0  0  0999 V2000
    9.4240    3.2260  -10.0810 C   0  0  0  0  0  0  0  0  0  0  0  0
   10.1160    4.2490  -10.9700 C   0  0  0  0  0  0  0  0  0  0  0  0
   11.1370    5.1160  -10.2230 C   0  0  0  0  0  0  0  0  0  0  0  0
   10.7800    6.5900  -10.1910 C   0  0  0  0  0  0  0  0  0  0  0  0
   10.1470    7.1570   -9.0680 C   0  0  0  0  0  0  0  0  0  0  0  0
    9.8950    6.3100   -8.0180 O   0  0  0  0  0  0  0  0  0  0  0  0
    8.7030    6.5530   -7.2700 C   0  0  0  0  0  0  0  0  0  0  0  0
    8.1000    5.2090   -6.8760 C   0  0  0  0  0  0  0  0  0  0  0  0
    6.7250    5.3230   -6.2210 C   0  0  0  0  0  0  0  0  0  0  0  0
    5.9630    6.9860   -6.3400 S   0  0  0  0  0  0  0  0  0  0  0  0
    4.9770    7.0480   -4.8450 C   0  0  0  0  0  0  0  0  0  0  0  0
    4.5160    5.8180   -4.3500 C   0  0  0  0  0  0  0  0  0  0  0  0
    3.7170    5.7530   -3.2040 C   0  0  0  0  0  0  0  0  0  0  0  0
    3.3820    6.9180   -2.5090 C   0  0  0  0  0  0  0  0  0  0  0  0
    2.5070    6.8540   -1.2800 C   0  0  0  0  0  0  0  0  0  0  0  0
    2.7560    7.9720   -0.2950 C   0  0  0  0  0  0  0  0  0  0  0  0
    2.1440    9.0220   -0.1750 O   0  0  0  0  0  0  0  0  0  0  0  0
    3.7820    7.6860    0.5360 O   0  0  0  0  0  0  0  0  0  0  0  0
    3.8690    8.1480   -2.9770 C   0  0  0  0  0  0  0  0  0  0  0  0
    4.6710    8.2130   -4.1250 C   0  0  0  0  0  0  0  0  0  0  0  0
    5.2780    9.7740   -4.5640 Cl  0  0  0  0  0  0  0  0  0  0  0  0
    9.8240    8.5170   -9.0680 C   0  0  0  0  0  0  0  0  0  0  0  0
   10.1090    9.3220  -10.1750 C   0  0  0  0  0  0  0  0  0  0  0  0
   10.7290    8.7810  -11.3040 C   0  0  0  0  0  0  0  0  0  0  0  0
   11.0420    9.6250  -12.5000 C   0  0  0  0  0  0  0  0  0  0  0  0
   12.1280    9.4740  -13.0650 O   0  0  0  0  0  0  0  0  0  0  0  0
   10.0420   10.6400  -13.0120 C   0  0  0  0  0  0  0  0  0  0  0  0
   10.5790   11.3750  -14.2260 C   0  0  0  0  0  0  0  0  0  0  0  0
   11.0540    7.4110  -11.3040 C   0  0  0  0  0  0  0  0  0  0  0  0
   11.6550    6.8110  -12.3860 O   0  0  0  0  0  0  0  0  0  0  0  0
  1  2  1  0
  2  3  1  0
  3  4  1  0
  4  5  2  0
  5  6  1  0
  6  7  1  0
  7  8  1  0
  8  9  1  0
  9 10  1  0
 10 11  1  0
 11 12  2  0
 12 13  1  0
 13 14  2  0
 14 15  1  0
 15 16  1  0
 16 17  2  0
 16 18  1  0
 14 19  1  0
 19 20  2  0
 20 21  1  0
  5 22  1  0
 22 23  2  0
 23 24  1  0
 24 25  1  0
 25 26  2  0
 25 27  1  0
 27 28  1  0
 24 29  2  0
 29 30  1  0
 29  4  1  0
 20 11  1  0
M  END
$$$$
