MMUPKVYIRSGJIV-UHFFFAOYSA-N
     RDKit          3D

 30 31  0  0  0  0  0  0  0  0999 V2000
   10.4850    3.0950  -10.6220 C   0  0  0  0  0  0  0  0  0  0  0  0
    9.9800    4.4750  -11.0170 C   0  0  0  0  0  0  0  0  0  0  0  0
   11.0950    5.5180  -11.1550 C   0  0  0  0  0  0  0  0  0  0  0  0
   10.6560    6.9290  -10.8150 C   0  0  0  0  0  0  0  0  0  0  0  0
   10.4860    7.3320   -9.4770 C   0  0  0  0  0  0  0  0  0  0  0  0
   10.7550    6.3880   -8.5170 O   0  0  0  0  0  0  0  0  0  0  0  0
    9.7060    6.0980   -7.5910 C   0  0  0  0  0  0  0  0  0  0  0  0
    9.8340    4.6410   -7.1600 C   0  0  0  0  0  0  0  0  0  0  0  0
    8.8750    4.2490   -6.0370 C   0  0  0  0  0  0  0  0  0  0  0  0
    8.6300    2.4430   -5.8450 S   0  0  0  0  0  0  0  0  0  0  0  0
    9.8420    2.0370   -4.5890 C   0  0  0  0  0  0  0  0  0  0  0  0
   11.0060    1.3910   -5.0320 C   0  0  0  0  0  0  0  0  0  0  0  0
   12.0060    1.0060   -4.1340 C   0  0  0  0  0  0  0  0  0  0  0  0
   11.8760    1.2820   -2.7700 C   0  0  0  0  0  0  0  0  0  0  0  0
   12.9460    0.8550   -1.7940 C   0  0  0  0  0  0  0  0  0  0  0  0
   14.1680    1.7450   -1.7990 C   0  0  0  0  0  0  0  0  0  0  0  0
   14.3530    2.7680   -2.4380 O   0  0  0  0  0  0  0  0  0  0  0  0
   15.1140    1.2960   -0.9460 O   0  0  0  0  0  0  0  0  0  0  0  0
   10.7310    1.9600   -2.3240 C   0  0  0  0  0  0  0  0  0  0  0  0
    9.7290    2.3480   -3.2260 C   0  0  0  0  0  0  0  0  0  0  0  0
    8.4000    3.2460   -2.5740 Cl  0  0  0  0  0  0  0  0  0  0  0  0
   10.0760    8.6380   -9.1930 C   0  0  0  0  0  0  0  0  0  0  0  0
    9.8180    9.5480  -10.2220 C   0  0  0  0  0  0  0  0  0  0  0  0
    9.9720    9.1700  -11.5580 C   0  0  0  0  0  0  0  0  0  0  0  0
    9.7000   10.1290  -12.6740 C   0  0  0  0  0  0  0  0  0  0  0  0
    8.6010   10.0960  -13.2310 O   0  0  0  0  0  0  0  0  0  0  0  0
   10.7540   11.1280  -13.1080 C   0  0  0  0  0  0  0  0  0  0  0  0
   11.4730   10.6570  -14.3580 C   0  0  0  0  0  0  0  0  0  0  0  0
   10.3850    7.8550  -11.8430 C   0  0  0  0  0  0  0  0  0  0  0  0
   10.5460    7.4130  -13.1360 O   0  0  0  0  0  0  0  0  0  0  0  0
  1  2  1  0
  2  3  1  0
  3  4  1  0
  4  5  2  0
  5  6  1  0
  6  7  1  0
  7  8  1  0
  8  9  1  0
  9 10  1  0
 10 11  1  0
 11 12  2  0
 12 13  1  0
 13 14  2  0
 14 15  1  0
 15 16  1  0
 16 17  2  0
 16 18  1  0
 14 19  1  0
 19 20  2  0
 20 21  1  0
  5 22  1  0
 22 23  2  0
 23 24  1  0
 24 25  1  0
 25 26  2  0
 25 27  1  0
 27 28  1  0
 24 29  2  0
 29 30  1  0
 29  4  1  0
 20 11  1  0
M  END
$$$$
