LSPANGZZENHZNJ-UHFFFAOYSA-N
     RDKit          3D

 22 24  0  0  0  0  0  0  0  0999 V2000
   15.2780    6.5760   25.3830 C   0  0  0  0  0  0  0  0  0  0  0  0
   13.9410    6.0970   25.3680 O   0  0  0  0  0  0  0  0  0  0  0  0
   13.6730    4.9320   26.0430 C   0  0  0  0  0  0  0  0  0  0  0  0
   14.6130    3.9270   26.2950 C   0  0  0  0  0  0  0  0  0  0  0  0
   14.2860    2.7670   26.9860 C   0  0  0  0  0  0  0  0  0  0  0  0
   15.2420    1.8530   27.1690 N   0  0  0  0  0  0  0  0  0  0  0  0
   14.8940    0.7440   27.8260 C   0  0  0  0  0  0  0  0  0  0  0  0
   13.6890    0.4710   28.3290 N   0  0  0  0  0  0  0  0  0  0  0  0
   12.7340    1.4050   28.1630 C   0  0  0  0  0  0  0  0  0  0  0  0
   11.4550    1.1730   28.7170 N   0  0  0  0  0  0  0  0  0  0  0  0
   10.9600    1.4260   30.0100 C   0  0  0  0  0  0  0  0  0  0  0  0
   11.7730    1.1300   31.1170 C   0  0  0  0  0  0  0  0  0  0  0  0
   11.3420    1.3870   32.4220 C   0  0  0  0  0  0  0  0  0  0  0  0
   10.0910    1.9550   32.6420 C   0  0  0  0  0  0  0  0  0  0  0  0
    9.2820    2.2670   31.5530 C   0  0  0  0  0  0  0  0  0  0  0  0
    7.5870    3.0540   31.8440 Br  0  0  0  0  0  0  0  0  0  0  0  0
    9.7120    2.0120   30.2480 C   0  0  0  0  0  0  0  0  0  0  0  0
   12.9780    2.6020   27.4570 C   0  0  0  0  0  0  0  0  0  0  0  0
   12.0130    3.6090   27.1910 C   0  0  0  0  0  0  0  0  0  0  0  0
   12.3520    4.7670   26.4880 C   0  0  0  0  0  0  0  0  0  0  0  0
   11.4810    5.7840   26.1980 O   0  0  0  0  0  0  0  0  0  0  0  0
   10.4250    5.5160   25.2870 C   0  0  0  0  0  0  0  0  0  0  0  0
  1  2  1  0
  2  3  1  0
  3  4  2  0
  4  5  1  0
  5  6  2  0
  6  7  1  0
  7  8  2  0
  8  9  1  0
  9 10  1  0
 10 11  1  0
 11 12  2  0
 12 13  1  0
 13 14  2  0
 14 15  1  0
 15 16  1  0
 15 17  2  0
  9 18  2  0
 18 19  1  0
 19 20  2  0
 20 21  1  0
 21 22  1  0
 20  3  1  0
 18  5  1  0
 17 11  1  0
M  END
$$$$
