QVZXJVILZBKCPS-UHFFFAOYSA-N
     RDKit          3D

 30 33  0  0  0  0  0  0  0  0999 V2000
   11.6940  -25.2630   25.7580 C   0  0  0  0  0  0  0  0  0  0  0  0
   10.4140  -25.4710   24.9550 C   0  0  0  0  0  0  0  0  0  0  0  0
    9.4500  -26.4830   25.6060 C   0  0  0  0  0  0  0  0  0  0  0  0
   10.1240  -27.8370   25.9070 C   0  0  0  0  0  0  0  0  0  0  0  0
   10.2260  -28.1460   27.3930 C   0  0  0  0  0  0  0  0  0  0  0  0
    8.2500  -26.6880   24.7890 N   0  0  0  0  0  0  0  0  0  0  0  0
    7.5550  -25.7490   24.0840 C   0  0  0  0  0  0  0  0  0  0  0  0
    6.4970  -26.4020   23.4740 C   0  0  0  0  0  0  0  0  0  0  0  0
    5.5100  -25.7850   22.6120 C   0  0  0  0  0  0  0  0  0  0  0  0
    5.6760  -24.5280   22.3110 N   0  0  0  0  0  0  0  0  0  0  0  0
    4.7680  -23.9170   21.4610 C   0  0  0  0  0  0  0  0  0  0  0  0
    5.0590  -22.5420   21.1880 C   0  0  0  0  0  0  0  0  0  0  0  0
    5.6060  -21.5770   22.0660 C   0  0  0  0  0  0  0  0  0  0  0  0
    5.7510  -20.3780   21.4910 N   0  0  0  0  0  0  0  0  0  0  0  0
    5.2890  -20.5740   20.2390 N   0  0  0  0  0  0  0  0  0  0  0  0
    5.3010  -19.4730   19.2940 C   0  0  0  0  0  0  0  0  0  0  0  0
    4.1230  -18.4760   19.4330 C   0  0  0  0  0  0  0  0  0  0  0  0
    2.9620  -19.2290   20.1150 C   0  0  0  0  0  0  0  0  0  0  0  0
    4.5190  -17.2870   20.3260 C   0  0  0  0  0  0  0  0  0  0  0  0
    3.6380  -17.9330   18.0700 C   0  0  0  0  0  0  0  0  0  0  0  0
    4.4120  -18.4540   16.9980 O   0  0  0  0  0  0  0  0  0  0  0  0
    4.8740  -21.8550   20.0060 C   0  0  0  0  0  0  0  0  0  0  0  0
    3.7160  -24.5790   20.9440 C   0  0  0  0  0  0  0  0  0  0  0  0
    3.5180  -25.9050   21.2740 N   0  0  0  0  0  0  0  0  0  0  0  0
    2.5170  -26.7240   20.8720 N   0  0  0  0  0  0  0  0  0  0  0  0
    2.7440  -27.8700   21.5130 C   0  0  0  0  0  0  0  0  0  0  0  0
    3.8940  -27.8190   22.3180 C   0  0  0  0  0  0  0  0  0  0  0  0
    4.3930  -26.5500   22.1240 C   0  0  0  0  0  0  0  0  0  0  0  0
    6.6800  -27.7480   23.8640 C   0  0  0  0  0  0  0  0  0  0  0  0
    7.7270  -27.9240   24.6730 N   0  0  0  0  0  0  0  0  0  0  0  0
  1  2  1  0
  2  3  1  0
  3  4  1  0
  4  5  1  0
  3  6  1  0
  6  7  1  0
  7  8  2  0
  8  9  1  0
  9 10  2  0
 10 11  1  0
 11 12  1  0
 12 13  1  0
 13 14  2  0
 14 15  1  0
 15 16  1  0
 16 17  1  0
 17 18  1  0
 17 19  1  0
 17 20  1  0
 20 21  1  0
 15 22  1  0
 11 23  2  0
 23 24  1  0
 24 25  1  0
 25 26  2  0
 26 27  1  0
 27 28  2  0
  8 29  1  0
 29 30  2  0
 30  6  1  0
 28  9  1  0
 22 12  2  0
 28 24  1  0
M  END
$$$$
